<?xml version='1.0' encoding='utf-8'?>
<routes>
  <vType id="electric_eco" vClass="taxi" color="0,1,0" emissionClass="Energy">
    <param key="has.taxi.device" value="true" />
    <param key="device.taxi.end" value="7200" />
  </vType>
  <vType id="diesel_normal" vClass="taxi" color="1,0,0" emissionClass="HBEFA3/PC_D_EU4">
    <param key="has.taxi.device" value="true" />
    <param key="device.taxi.end" value="7200" />
  </vType>
  <vType id="gas_modern" vClass="taxi" color="0,0,1" emissionClass="HBEFA3/PC_G_EU6">
    <param key="has.taxi.device" value="true" />
    <param key="device.taxi.end" value="7200" />
  </vType>
  <vType id="zero_emis" vClass="taxi" color="0.5,0.5,0" emissionClass="Zero">
    <param key="has.taxi.device" value="true" />
    <param key="device.taxi.end" value="7200" />
  </vType>
  <trip id="taxi_0" depart="0.00" type="electric_eco" personCapacity="4">
    <stop lane="1032595381_0" triggered="person" />
  </trip>
  <trip id="taxi_1" depart="0.00" type="electric_eco" personCapacity="4">
    <stop lane="-24335480#11_0" triggered="person" />
  </trip>
  <trip id="taxi_2" depart="0.00" type="electric_eco" personCapacity="4">
    <stop lane="25758528#0_0" triggered="person" />
  </trip>
  <trip id="taxi_3" depart="0.00" type="electric_eco" personCapacity="4">
    <stop lane="27167933_0" triggered="person" />
  </trip>
  <trip id="taxi_4" depart="0.00" type="electric_eco" personCapacity="4">
    <stop lane="28841123_0" triggered="person" />
  </trip>
  <trip id="taxi_5" depart="0.00" type="electric_eco" personCapacity="4">
    <stop lane="-681494252_0" triggered="person" />
  </trip>
  <trip id="taxi_6" depart="0.00" type="electric_eco" personCapacity="4">
    <stop lane="-255170265#1_0" triggered="person" />
  </trip>
  <trip id="taxi_7" depart="0.00" type="electric_eco" personCapacity="4">
    <stop lane="437557845#1_0" triggered="person" />
  </trip>
  <trip id="taxi_8" depart="0.00" type="electric_eco" personCapacity="4">
    <stop lane="-8916953#1_0" triggered="person" />
  </trip>
  <trip id="taxi_9" depart="0.00" type="electric_eco" personCapacity="4">
    <stop lane="37751501_0" triggered="person" />
  </trip>
  <trip id="taxi_10" depart="0.00" type="electric_eco" personCapacity="4">
    <stop lane="24335469#4_0" triggered="person" />
  </trip>
  <trip id="taxi_11" depart="0.00" type="electric_eco" personCapacity="4">
    <stop lane="133735882#1_0" triggered="person" />
  </trip>
  <trip id="taxi_12" depart="0.00" type="electric_eco" personCapacity="4">
    <stop lane="437417732#0_0" triggered="person" />
  </trip>
  <trip id="taxi_13" depart="0.00" type="electric_eco" personCapacity="4">
    <stop lane="8917736_0" triggered="person" />
  </trip>
  <trip id="taxi_14" depart="0.00" type="electric_eco" personCapacity="4">
    <stop lane="133856295_0" triggered="person" />
  </trip>
  <trip id="taxi_15" depart="0.00" type="electric_eco" personCapacity="4">
    <stop lane="-8922002#1_0" triggered="person" />
  </trip>
  <trip id="taxi_16" depart="0.00" type="electric_eco" personCapacity="4">
    <stop lane="620169771#0_0" triggered="person" />
  </trip>
  <trip id="taxi_17" depart="0.00" type="electric_eco" personCapacity="4">
    <stop lane="255351720#4_0" triggered="person" />
  </trip>
  <trip id="taxi_18" depart="0.00" type="electric_eco" personCapacity="4">
    <stop lane="-29482579_0" triggered="person" />
  </trip>
  <trip id="taxi_19" depart="0.00" type="electric_eco" personCapacity="4">
    <stop lane="-46271090#0_0" triggered="person" />
  </trip>
  <trip id="taxi_20" depart="0.00" type="electric_eco" personCapacity="4">
    <stop lane="8920013_0" triggered="person" />
  </trip>
  <trip id="taxi_21" depart="0.00" type="electric_eco" personCapacity="4">
    <stop lane="706554486_0" triggered="person" />
  </trip>
  <trip id="taxi_22" depart="0.00" type="electric_eco" personCapacity="4">
    <stop lane="8917801#4_0" triggered="person" />
  </trip>
  <trip id="taxi_23" depart="0.00" type="electric_eco" personCapacity="4">
    <stop lane="224384017#1_0" triggered="person" />
  </trip>
  <trip id="taxi_24" depart="0.00" type="electric_eco" personCapacity="4">
    <stop lane="676714195#0_0" triggered="person" />
  </trip>
  <trip id="taxi_25" depart="0.00" type="electric_eco" personCapacity="4">
    <stop lane="-512283895#2_0" triggered="person" />
  </trip>
  <trip id="taxi_26" depart="0.00" type="electric_eco" personCapacity="4">
    <stop lane="8921262_0" triggered="person" />
  </trip>
  <trip id="taxi_27" depart="0.00" type="electric_eco" personCapacity="4">
    <stop lane="-144346316#2_0" triggered="person" />
  </trip>
  <trip id="taxi_28" depart="0.00" type="electric_eco" personCapacity="4">
    <stop lane="-8919135#0_0" triggered="person" />
  </trip>
  <trip id="taxi_29" depart="0.00" type="electric_eco" personCapacity="4">
    <stop lane="488986463_0" triggered="person" />
  </trip>
  <trip id="taxi_30" depart="0.00" type="electric_eco" personCapacity="4">
    <stop lane="-215848124_0" triggered="person" />
  </trip>
  <trip id="taxi_31" depart="0.00" type="electric_eco" personCapacity="4">
    <stop lane="30029703#6_0" triggered="person" />
  </trip>
  <trip id="taxi_32" depart="0.00" type="electric_eco" personCapacity="4">
    <stop lane="437555702#5_0" triggered="person" />
  </trip>
  <trip id="taxi_33" depart="0.00" type="electric_eco" personCapacity="4">
    <stop lane="1090200058_0" triggered="person" />
  </trip>
  <trip id="taxi_34" depart="0.00" type="electric_eco" personCapacity="4">
    <stop lane="-87297164#1_0" triggered="person" />
  </trip>
  <trip id="taxi_35" depart="0.00" type="electric_eco" personCapacity="4">
    <stop lane="898469738#0_0" triggered="person" />
  </trip>
  <trip id="taxi_36" depart="0.00" type="electric_eco" personCapacity="4">
    <stop lane="813986023#0_0" triggered="person" />
  </trip>
  <trip id="taxi_37" depart="0.00" type="electric_eco" personCapacity="4">
    <stop lane="254297756_0" triggered="person" />
  </trip>
  <trip id="taxi_38" depart="0.00" type="electric_eco" personCapacity="4">
    <stop lane="8917416#0_0" triggered="person" />
  </trip>
  <trip id="taxi_39" depart="0.00" type="electric_eco" personCapacity="4">
    <stop lane="-802591083#2_0" triggered="person" />
  </trip>
  <trip id="taxi_40" depart="0.00" type="electric_eco" personCapacity="4">
    <stop lane="-437556516#5_0" triggered="person" />
  </trip>
  <trip id="taxi_41" depart="0.00" type="electric_eco" personCapacity="4">
    <stop lane="86331251#6_0" triggered="person" />
  </trip>
  <trip id="taxi_42" depart="0.00" type="electric_eco" personCapacity="4">
    <stop lane="8918756_0" triggered="person" />
  </trip>
  <trip id="taxi_43" depart="0.00" type="electric_eco" personCapacity="4">
    <stop lane="27092233#8_0" triggered="person" />
  </trip>
  <trip id="taxi_44" depart="0.00" type="electric_eco" personCapacity="4">
    <stop lane="-8917264#0_0" triggered="person" />
  </trip>
  <trip id="taxi_45" depart="0.00" type="electric_eco" personCapacity="4">
    <stop lane="-48435258#13_0" triggered="person" />
  </trip>
  <trip id="taxi_46" depart="0.00" type="electric_eco" personCapacity="4">
    <stop lane="678038625_0" triggered="person" />
  </trip>
  <trip id="taxi_47" depart="0.00" type="electric_eco" personCapacity="4">
    <stop lane="286299595#3_0" triggered="person" />
  </trip>
  <trip id="taxi_48" depart="0.00" type="electric_eco" personCapacity="4">
    <stop lane="-111560681#3_0" triggered="person" />
  </trip>
  <trip id="taxi_49" depart="0.00" type="electric_eco" personCapacity="4">
    <stop lane="-437556516#11_0" triggered="person" />
  </trip>
  <trip id="taxi_50" depart="0.00" type="electric_eco" personCapacity="4">
    <stop lane="32928950#1_0" triggered="person" />
  </trip>
  <trip id="taxi_51" depart="0.00" type="electric_eco" personCapacity="4">
    <stop lane="-514407369#1_0" triggered="person" />
  </trip>
  <trip id="taxi_52" depart="0.00" type="electric_eco" personCapacity="4">
    <stop lane="681479565_0" triggered="person" />
  </trip>
  <trip id="taxi_53" depart="0.00" type="electric_eco" personCapacity="4">
    <stop lane="417235842#0_0" triggered="person" />
  </trip>
  <trip id="taxi_54" depart="0.00" type="electric_eco" personCapacity="4">
    <stop lane="37177789#0_0" triggered="person" />
  </trip>
  <trip id="taxi_55" depart="0.00" type="electric_eco" personCapacity="4">
    <stop lane="396945235#0_0" triggered="person" />
  </trip>
  <trip id="taxi_56" depart="0.00" type="electric_eco" personCapacity="4">
    <stop lane="8918943#2_0" triggered="person" />
  </trip>
  <trip id="taxi_57" depart="0.00" type="electric_eco" personCapacity="4">
    <stop lane="27166466#0_0" triggered="person" />
  </trip>
  <trip id="taxi_58" depart="0.00" type="electric_eco" personCapacity="4">
    <stop lane="28690007#5_0" triggered="person" />
  </trip>
  <trip id="taxi_59" depart="0.00" type="electric_eco" personCapacity="4">
    <stop lane="1034016032#1_0" triggered="person" />
  </trip>
  <trip id="taxi_60" depart="0.00" type="electric_eco" personCapacity="4">
    <stop lane="254759957#0_0" triggered="person" />
  </trip>
  <trip id="taxi_61" depart="0.00" type="electric_eco" personCapacity="4">
    <stop lane="437913409#0_0" triggered="person" />
  </trip>
  <trip id="taxi_62" depart="0.00" type="electric_eco" personCapacity="4">
    <stop lane="417103296_0" triggered="person" />
  </trip>
  <trip id="taxi_63" depart="0.00" type="electric_eco" personCapacity="4">
    <stop lane="89802427#0_0" triggered="person" />
  </trip>
  <trip id="taxi_64" depart="0.00" type="electric_eco" personCapacity="4">
    <stop lane="133856288#0_0" triggered="person" />
  </trip>
  <trip id="taxi_65" depart="0.00" type="electric_eco" personCapacity="4">
    <stop lane="437541662#1_0" triggered="person" />
  </trip>
  <trip id="taxi_66" depart="0.00" type="electric_eco" personCapacity="4">
    <stop lane="437559564#1_0" triggered="person" />
  </trip>
  <trip id="taxi_67" depart="0.00" type="electric_eco" personCapacity="4">
    <stop lane="-254756526#2_0" triggered="person" />
  </trip>
  <trip id="taxi_68" depart="0.00" type="electric_eco" personCapacity="4">
    <stop lane="-47183748#2_0" triggered="person" />
  </trip>
  <trip id="taxi_69" depart="0.00" type="electric_eco" personCapacity="4">
    <stop lane="-30642909#1_0" triggered="person" />
  </trip>
  <trip id="taxi_70" depart="0.00" type="electric_eco" personCapacity="4">
    <stop lane="-1011006249#1_0" triggered="person" />
  </trip>
  <trip id="taxi_71" depart="0.00" type="electric_eco" personCapacity="4">
    <stop lane="46791690#2_0" triggered="person" />
  </trip>
  <trip id="taxi_72" depart="0.00" type="electric_eco" personCapacity="4">
    <stop lane="43100743#1_0" triggered="person" />
  </trip>
  <trip id="taxi_73" depart="0.00" type="electric_eco" personCapacity="4">
    <stop lane="-8918982_0" triggered="person" />
  </trip>
  <trip id="taxi_74" depart="0.00" type="electric_eco" personCapacity="4">
    <stop lane="399584994_0" triggered="person" />
  </trip>
  <trip id="taxi_75" depart="0.00" type="electric_eco" personCapacity="4">
    <stop lane="8919527#3_0" triggered="person" />
  </trip>
  <trip id="taxi_76" depart="0.00" type="electric_eco" personCapacity="4">
    <stop lane="8922884#1_0" triggered="person" />
  </trip>
  <trip id="taxi_77" depart="0.00" type="electric_eco" personCapacity="4">
    <stop lane="-514453083_0" triggered="person" />
  </trip>
  <trip id="taxi_78" depart="0.00" type="electric_eco" personCapacity="4">
    <stop lane="8919178_0" triggered="person" />
  </trip>
  <trip id="taxi_79" depart="0.00" type="electric_eco" personCapacity="4">
    <stop lane="-8916773#1_0" triggered="person" />
  </trip>
  <trip id="taxi_80" depart="0.00" type="electric_eco" personCapacity="4">
    <stop lane="399144608#0_0" triggered="person" />
  </trip>
  <trip id="taxi_81" depart="0.00" type="electric_eco" personCapacity="4">
    <stop lane="563926242#0_0" triggered="person" />
  </trip>
  <trip id="taxi_82" depart="0.00" type="electric_eco" personCapacity="4">
    <stop lane="-8921180#4_0" triggered="person" />
  </trip>
  <trip id="taxi_83" depart="0.00" type="electric_eco" personCapacity="4">
    <stop lane="1041363479#0_0" triggered="person" />
  </trip>
  <trip id="taxi_84" depart="0.00" type="electric_eco" personCapacity="4">
    <stop lane="-8919709#4_0" triggered="person" />
  </trip>
  <trip id="taxi_85" depart="0.00" type="electric_eco" personCapacity="4">
    <stop lane="-1168069939#1_0" triggered="person" />
  </trip>
  <trip id="taxi_86" depart="0.00" type="electric_eco" personCapacity="4">
    <stop lane="225806053#5_0" triggered="person" />
  </trip>
  <trip id="taxi_87" depart="0.00" type="electric_eco" personCapacity="4">
    <stop lane="-400105599#8_0" triggered="person" />
  </trip>
  <trip id="taxi_88" depart="0.00" type="electric_eco" personCapacity="4">
    <stop lane="27400639#0_0" triggered="person" />
  </trip>
  <trip id="taxi_89" depart="0.00" type="electric_eco" personCapacity="4">
    <stop lane="32121425#1_0" triggered="person" />
  </trip>
  <trip id="taxi_90" depart="0.00" type="electric_eco" personCapacity="4">
    <stop lane="-287958606#5_0" triggered="person" />
  </trip>
  <trip id="taxi_91" depart="0.00" type="electric_eco" personCapacity="4">
    <stop lane="8918834_0" triggered="person" />
  </trip>
  <trip id="taxi_92" depart="0.00" type="electric_eco" personCapacity="4">
    <stop lane="159791114#0_0" triggered="person" />
  </trip>
  <trip id="taxi_93" depart="0.00" type="electric_eco" personCapacity="4">
    <stop lane="29482560_0" triggered="person" />
  </trip>
  <trip id="taxi_94" depart="0.00" type="electric_eco" personCapacity="4">
    <stop lane="-281967797_0" triggered="person" />
  </trip>
  <trip id="taxi_95" depart="0.00" type="electric_eco" personCapacity="4">
    <stop lane="397153595#0_0" triggered="person" />
  </trip>
  <trip id="taxi_96" depart="0.00" type="electric_eco" personCapacity="4">
    <stop lane="-1020512096#0_0" triggered="person" />
  </trip>
  <trip id="taxi_97" depart="0.00" type="electric_eco" personCapacity="4">
    <stop lane="88559650#0_0" triggered="person" />
  </trip>
  <trip id="taxi_98" depart="0.00" type="electric_eco" personCapacity="4">
    <stop lane="286117612_0" triggered="person" />
  </trip>
  <trip id="taxi_99" depart="0.00" type="electric_eco" personCapacity="4">
    <stop lane="-224200966#2_0" triggered="person" />
  </trip>
  <trip id="taxi_100" depart="0.00" type="electric_eco" personCapacity="4">
    <stop lane="-224384029_0" triggered="person" />
  </trip>
  <trip id="taxi_101" depart="0.00" type="electric_eco" personCapacity="4">
    <stop lane="-8918969#0_0" triggered="person" />
  </trip>
  <trip id="taxi_102" depart="0.00" type="electric_eco" personCapacity="4">
    <stop lane="-254297753#1_0" triggered="person" />
  </trip>
  <trip id="taxi_103" depart="0.00" type="electric_eco" personCapacity="4">
    <stop lane="-225516700#3_0" triggered="person" />
  </trip>
  <trip id="taxi_104" depart="0.00" type="electric_eco" personCapacity="4">
    <stop lane="-544456548#11_0" triggered="person" />
  </trip>
  <trip id="taxi_105" depart="0.00" type="electric_eco" personCapacity="4">
    <stop lane="-515038138#0_0" triggered="person" />
  </trip>
  <trip id="taxi_106" depart="0.00" type="electric_eco" personCapacity="4">
    <stop lane="397120482_0" triggered="person" />
  </trip>
  <trip id="taxi_107" depart="0.00" type="electric_eco" personCapacity="4">
    <stop lane="-158468970#1_0" triggered="person" />
  </trip>
  <trip id="taxi_108" depart="0.00" type="electric_eco" personCapacity="4">
    <stop lane="437533749#4_0" triggered="person" />
  </trip>
  <trip id="taxi_109" depart="0.00" type="electric_eco" personCapacity="4">
    <stop lane="1092444832#0_0" triggered="person" />
  </trip>
  <trip id="taxi_110" depart="0.00" type="electric_eco" personCapacity="4">
    <stop lane="43100743#0_0" triggered="person" />
  </trip>
  <trip id="taxi_111" depart="0.00" type="electric_eco" personCapacity="4">
    <stop lane="-254758137#4_0" triggered="person" />
  </trip>
  <trip id="taxi_112" depart="0.00" type="electric_eco" personCapacity="4">
    <stop lane="-158804456#1_0" triggered="person" />
  </trip>
  <trip id="taxi_113" depart="0.00" type="electric_eco" personCapacity="4">
    <stop lane="47172109_0" triggered="person" />
  </trip>
  <trip id="taxi_114" depart="0.00" type="electric_eco" personCapacity="4">
    <stop lane="-399013791#3_0" triggered="person" />
  </trip>
  <trip id="taxi_115" depart="0.00" type="electric_eco" personCapacity="4">
    <stop lane="417101704#0_0" triggered="person" />
  </trip>
  <trip id="taxi_116" depart="0.00" type="electric_eco" personCapacity="4">
    <stop lane="8917230_0" triggered="person" />
  </trip>
  <trip id="taxi_117" depart="0.00" type="electric_eco" personCapacity="4">
    <stop lane="-8921780#6_0" triggered="person" />
  </trip>
  <trip id="taxi_118" depart="0.00" type="electric_eco" personCapacity="4">
    <stop lane="437538348#1_0" triggered="person" />
  </trip>
  <trip id="taxi_119" depart="0.00" type="electric_eco" personCapacity="4">
    <stop lane="47108420_0" triggered="person" />
  </trip>
  <trip id="taxi_120" depart="0.00" type="electric_eco" personCapacity="4">
    <stop lane="28319343#0_0" triggered="person" />
  </trip>
  <trip id="taxi_121" depart="0.00" type="electric_eco" personCapacity="4">
    <stop lane="8917197#3_0" triggered="person" />
  </trip>
  <trip id="taxi_122" depart="0.00" type="electric_eco" personCapacity="4">
    <stop lane="-8920246_0" triggered="person" />
  </trip>
  <trip id="taxi_123" depart="0.00" type="electric_eco" personCapacity="4">
    <stop lane="-238783945#0_0" triggered="person" />
  </trip>
  <trip id="taxi_124" depart="0.00" type="electric_eco" personCapacity="4">
    <stop lane="598020856#0_0" triggered="person" />
  </trip>
  <trip id="taxi_125" depart="0.00" type="electric_eco" personCapacity="4">
    <stop lane="24163939_0" triggered="person" />
  </trip>
  <trip id="taxi_126" depart="0.00" type="electric_eco" personCapacity="4">
    <stop lane="-681178967_0" triggered="person" />
  </trip>
  <trip id="taxi_127" depart="0.00" type="electric_eco" personCapacity="4">
    <stop lane="-27092233#2_0" triggered="person" />
  </trip>
  <trip id="taxi_128" depart="0.00" type="electric_eco" personCapacity="4">
    <stop lane="-970235554_0" triggered="person" />
  </trip>
  <trip id="taxi_129" depart="0.00" type="electric_eco" personCapacity="4">
    <stop lane="-255178168_0" triggered="person" />
  </trip>
  <trip id="taxi_130" depart="0.00" type="electric_eco" personCapacity="4">
    <stop lane="-87376675#1_0" triggered="person" />
  </trip>
  <trip id="taxi_131" depart="0.00" type="electric_eco" personCapacity="4">
    <stop lane="31129372_0" triggered="person" />
  </trip>
  <trip id="taxi_132" depart="0.00" type="electric_eco" personCapacity="4">
    <stop lane="-8921597_0" triggered="person" />
  </trip>
  <trip id="taxi_133" depart="0.00" type="electric_eco" personCapacity="4">
    <stop lane="255170238#4_0" triggered="person" />
  </trip>
  <trip id="taxi_134" depart="0.00" type="electric_eco" personCapacity="4">
    <stop lane="-1178379357#13_0" triggered="person" />
  </trip>
  <trip id="taxi_135" depart="0.00" type="electric_eco" personCapacity="4">
    <stop lane="133748360#1_0" triggered="person" />
  </trip>
  <trip id="taxi_136" depart="0.00" type="electric_eco" personCapacity="4">
    <stop lane="417099340#0_0" triggered="person" />
  </trip>
  <trip id="taxi_137" depart="0.00" type="electric_eco" personCapacity="4">
    <stop lane="8920936#0_0" triggered="person" />
  </trip>
  <trip id="taxi_138" depart="0.00" type="electric_eco" personCapacity="4">
    <stop lane="277451471#0_0" triggered="person" />
  </trip>
  <trip id="taxi_139" depart="0.00" type="electric_eco" personCapacity="4">
    <stop lane="925052344#5_0" triggered="person" />
  </trip>
  <trip id="taxi_140" depart="0.00" type="electric_eco" personCapacity="4">
    <stop lane="154647386#1_0" triggered="person" />
  </trip>
  <trip id="taxi_141" depart="0.00" type="electric_eco" personCapacity="4">
    <stop lane="-26940502#14_0" triggered="person" />
  </trip>
  <trip id="taxi_142" depart="0.00" type="electric_eco" personCapacity="4">
    <stop lane="E58_0" triggered="person" />
  </trip>
  <trip id="taxi_143" depart="0.00" type="electric_eco" personCapacity="4">
    <stop lane="-8919157#1_0" triggered="person" />
  </trip>
  <trip id="taxi_144" depart="0.00" type="electric_eco" personCapacity="4">
    <stop lane="26937974#2_0" triggered="person" />
  </trip>
  <trip id="taxi_145" depart="0.00" type="electric_eco" personCapacity="4">
    <stop lane="-399016166#4_0" triggered="person" />
  </trip>
  <trip id="taxi_146" depart="0.00" type="electric_eco" personCapacity="4">
    <stop lane="-8918005#0_0" triggered="person" />
  </trip>
  <trip id="taxi_147" depart="0.00" type="electric_eco" personCapacity="4">
    <stop lane="8919167_0" triggered="person" />
  </trip>
  <trip id="taxi_148" depart="0.00" type="electric_eco" personCapacity="4">
    <stop lane="259499935_0" triggered="person" />
  </trip>
  <trip id="taxi_149" depart="0.00" type="electric_eco" personCapacity="4">
    <stop lane="-254299112#1_0" triggered="person" />
  </trip>
  <trip id="taxi_150" depart="0.00" type="electric_eco" personCapacity="4">
    <stop lane="969999009#0_0" triggered="person" />
  </trip>
  <trip id="taxi_151" depart="0.00" type="electric_eco" personCapacity="4">
    <stop lane="8915941_0" triggered="person" />
  </trip>
  <trip id="taxi_152" depart="0.00" type="electric_eco" personCapacity="4">
    <stop lane="8916281#0_0" triggered="person" />
  </trip>
  <trip id="taxi_153" depart="0.00" type="electric_eco" personCapacity="4">
    <stop lane="27166466#2_0" triggered="person" />
  </trip>
  <trip id="taxi_154" depart="0.00" type="electric_eco" personCapacity="4">
    <stop lane="286003244#0_0" triggered="person" />
  </trip>
  <trip id="taxi_155" depart="0.00" type="electric_eco" personCapacity="4">
    <stop lane="845978827_0" triggered="person" />
  </trip>
  <trip id="taxi_156" depart="0.00" type="electric_eco" personCapacity="4">
    <stop lane="-254758120#3_0" triggered="person" />
  </trip>
  <trip id="taxi_157" depart="0.00" type="electric_eco" personCapacity="4">
    <stop lane="8920720#0_0" triggered="person" />
  </trip>
  <trip id="taxi_158" depart="0.00" type="electric_eco" personCapacity="4">
    <stop lane="-222628839#1_0" triggered="person" />
  </trip>
  <trip id="taxi_159" depart="0.00" type="electric_eco" personCapacity="4">
    <stop lane="-417087485#1_0" triggered="person" />
  </trip>
  <trip id="taxi_160" depart="0.00" type="electric_eco" personCapacity="4">
    <stop lane="-101153940#0_0" triggered="person" />
  </trip>
  <trip id="taxi_161" depart="0.00" type="electric_eco" personCapacity="4">
    <stop lane="254982292#0_0" triggered="person" />
  </trip>
  <trip id="taxi_162" depart="0.00" type="electric_eco" personCapacity="4">
    <stop lane="8917932_0" triggered="person" />
  </trip>
  <trip id="taxi_163" depart="0.00" type="electric_eco" personCapacity="4">
    <stop lane="-254750819_0" triggered="person" />
  </trip>
  <trip id="taxi_164" depart="0.00" type="electric_eco" personCapacity="4">
    <stop lane="1172249576_0" triggered="person" />
  </trip>
  <trip id="taxi_165" depart="0.00" type="electric_eco" personCapacity="4">
    <stop lane="-24444477#2_0" triggered="person" />
  </trip>
  <trip id="taxi_166" depart="0.00" type="electric_eco" personCapacity="4">
    <stop lane="24335454#0_0" triggered="person" />
  </trip>
  <trip id="taxi_167" depart="0.00" type="electric_eco" personCapacity="4">
    <stop lane="-86331259#2_0" triggered="person" />
  </trip>
  <trip id="taxi_168" depart="0.00" type="electric_eco" personCapacity="4">
    <stop lane="398681182#2_0" triggered="person" />
  </trip>
  <trip id="taxi_169" depart="0.00" type="electric_eco" personCapacity="4">
    <stop lane="E14_0" triggered="person" />
  </trip>
  <trip id="taxi_170" depart="0.00" type="electric_eco" personCapacity="4">
    <stop lane="-419633768#0_0" triggered="person" />
  </trip>
  <trip id="taxi_171" depart="0.00" type="electric_eco" personCapacity="4">
    <stop lane="544456547#4_0" triggered="person" />
  </trip>
  <trip id="taxi_172" depart="0.00" type="electric_eco" personCapacity="4">
    <stop lane="1010488207_0" triggered="person" />
  </trip>
  <trip id="taxi_173" depart="0.00" type="electric_eco" personCapacity="4">
    <stop lane="8921866_0" triggered="person" />
  </trip>
  <trip id="taxi_174" depart="0.00" type="electric_eco" personCapacity="4">
    <stop lane="425516617#6_0" triggered="person" />
  </trip>
  <trip id="taxi_175" depart="0.00" type="electric_eco" personCapacity="4">
    <stop lane="8919074#2_0" triggered="person" />
  </trip>
  <trip id="taxi_176" depart="0.00" type="electric_eco" personCapacity="4">
    <stop lane="-254758120#2_0" triggered="person" />
  </trip>
  <trip id="taxi_177" depart="0.00" type="electric_eco" personCapacity="4">
    <stop lane="100400941#0_0" triggered="person" />
  </trip>
  <trip id="taxi_178" depart="0.00" type="electric_eco" personCapacity="4">
    <stop lane="-254968950#1_0" triggered="person" />
  </trip>
  <trip id="taxi_179" depart="0.00" type="electric_eco" personCapacity="4">
    <stop lane="-69312756#2_0" triggered="person" />
  </trip>
  <trip id="taxi_180" depart="0.00" type="electric_eco" personCapacity="4">
    <stop lane="719449213#0_0" triggered="person" />
  </trip>
  <trip id="taxi_181" depart="0.00" type="electric_eco" personCapacity="4">
    <stop lane="-8921331#1_0" triggered="person" />
  </trip>
  <trip id="taxi_182" depart="0.00" type="electric_eco" personCapacity="4">
    <stop lane="37610423#0_0" triggered="person" />
  </trip>
  <trip id="taxi_183" depart="0.00" type="electric_eco" personCapacity="4">
    <stop lane="-8920094#1_0" triggered="person" />
  </trip>
  <trip id="taxi_184" depart="0.00" type="electric_eco" personCapacity="4">
    <stop lane="1035093273_0" triggered="person" />
  </trip>
  <trip id="taxi_185" depart="0.00" type="electric_eco" personCapacity="4">
    <stop lane="47183266_0" triggered="person" />
  </trip>
  <trip id="taxi_186" depart="0.00" type="electric_eco" personCapacity="4">
    <stop lane="133434960#1_0" triggered="person" />
  </trip>
  <trip id="taxi_187" depart="0.00" type="electric_eco" personCapacity="4">
    <stop lane="8921629_0" triggered="person" />
  </trip>
  <trip id="taxi_188" depart="0.00" type="electric_eco" personCapacity="4">
    <stop lane="8916287_0" triggered="person" />
  </trip>
  <trip id="taxi_189" depart="0.00" type="electric_eco" personCapacity="4">
    <stop lane="158804447_0" triggered="person" />
  </trip>
  <trip id="taxi_190" depart="0.00" type="electric_eco" personCapacity="4">
    <stop lane="155373679#0_0" triggered="person" />
  </trip>
  <trip id="taxi_191" depart="0.00" type="electric_eco" personCapacity="4">
    <stop lane="406547245#2_0" triggered="person" />
  </trip>
  <trip id="taxi_192" depart="0.00" type="electric_eco" personCapacity="4">
    <stop lane="762957925#2_0" triggered="person" />
  </trip>
  <trip id="taxi_193" depart="0.00" type="electric_eco" personCapacity="4">
    <stop lane="784325413#0_0" triggered="person" />
  </trip>
  <trip id="taxi_194" depart="0.00" type="electric_eco" personCapacity="4">
    <stop lane="397146715#3_0" triggered="person" />
  </trip>
  <trip id="taxi_195" depart="0.00" type="electric_eco" personCapacity="4">
    <stop lane="24280144#0_0" triggered="person" />
  </trip>
  <trip id="taxi_196" depart="0.00" type="electric_eco" personCapacity="4">
    <stop lane="E26_0" triggered="person" />
  </trip>
  <trip id="taxi_197" depart="0.00" type="electric_eco" personCapacity="4">
    <stop lane="27652177_0" triggered="person" />
  </trip>
  <trip id="taxi_198" depart="0.00" type="electric_eco" personCapacity="4">
    <stop lane="-8916562_0" triggered="person" />
  </trip>
  <trip id="taxi_199" depart="0.00" type="electric_eco" personCapacity="4">
    <stop lane="-398596154_0" triggered="person" />
  </trip>
  <trip id="taxi_200" depart="0.00" type="electric_eco" personCapacity="4">
    <stop lane="255166640#0_0" triggered="person" />
  </trip>
  <trip id="taxi_201" depart="0.00" type="electric_eco" personCapacity="4">
    <stop lane="91187852_0" triggered="person" />
  </trip>
  <trip id="taxi_202" depart="0.00" type="electric_eco" personCapacity="4">
    <stop lane="27054213#0_0" triggered="person" />
  </trip>
  <trip id="taxi_203" depart="0.00" type="electric_eco" personCapacity="4">
    <stop lane="-1216148101#3_0" triggered="person" />
  </trip>
  <trip id="taxi_204" depart="0.00" type="electric_eco" personCapacity="4">
    <stop lane="101153945#3_0" triggered="person" />
  </trip>
  <trip id="taxi_205" depart="0.00" type="electric_eco" personCapacity="4">
    <stop lane="425516656#1_0" triggered="person" />
  </trip>
  <trip id="taxi_206" depart="0.00" type="electric_eco" personCapacity="4">
    <stop lane="8919709#2_0" triggered="person" />
  </trip>
  <trip id="taxi_207" depart="0.00" type="electric_eco" personCapacity="4">
    <stop lane="-224200972#5_0" triggered="person" />
  </trip>
  <trip id="taxi_208" depart="0.00" type="electric_eco" personCapacity="4">
    <stop lane="-1208192878#0_0" triggered="person" />
  </trip>
  <trip id="taxi_209" depart="0.00" type="electric_eco" personCapacity="4">
    <stop lane="-513937855_0" triggered="person" />
  </trip>
  <trip id="taxi_210" depart="0.00" type="electric_eco" personCapacity="4">
    <stop lane="8917958#1_0" triggered="person" />
  </trip>
  <trip id="taxi_211" depart="0.00" type="electric_eco" personCapacity="4">
    <stop lane="86331214#0_0" triggered="person" />
  </trip>