<?xml version='1.0' encoding='utf-8'?>
<routes>
  <vType id="electric_eco" vClass="taxi" color="0,1,0" emissionClass="Energy">
    <param key="has.taxi.device" value="true" />
    <param key="device.taxi.end" value="7200" />
  </vType>
  <vType id="diesel_normal" vClass="taxi" color="1,0,0" emissionClass="HBEFA3/PC_D_EU4">
    <param key="has.taxi.device" value="true" />
    <param key="device.taxi.end" value="7200" />
  </vType>
  <vType id="gas_modern" vClass="taxi" color="0,0,1" emissionClass="HBEFA3/PC_G_EU6">
    <param key="has.taxi.device" value="true" />
    <param key="device.taxi.end" value="7200" />
  </vType>
  <vType id="zero_emis" vClass="taxi" color="0.5,0.5,0" emissionClass="Zero">
    <param key="has.taxi.device" value="true" />
    <param key="device.taxi.end" value="7200" />
  </vType>
  <trip id="taxi_0" depart="0.00" type="electric_eco" personCapacity="4">
    <stop lane="1215827892_0" triggered="person" />
  </trip>
  <trip id="taxi_1" depart="0.00" type="electric_eco" personCapacity="4">
    <stop lane="-91190520#0_0" triggered="person" />
  </trip>
  <trip id="taxi_2" depart="0.00" type="electric_eco" personCapacity="4">
    <stop lane="-573421353#2_0" triggered="person" />
  </trip>
  <trip id="taxi_3" depart="0.00" type="electric_eco" personCapacity="4">
    <stop lane="-797673526#3_0" triggered="person" />
  </trip>
  <trip id="taxi_4" depart="0.00" type="electric_eco" personCapacity="4">
    <stop lane="468450103#1_0" triggered="person" />
  </trip>
  <trip id="taxi_5" depart="0.00" type="electric_eco" personCapacity="4">
    <stop lane="254759977_0" triggered="person" />
  </trip>
  <trip id="taxi_6" depart="0.00" type="electric_eco" personCapacity="4">
    <stop lane="225854646#0_0" triggered="person" />
  </trip>
  <trip id="taxi_7" depart="0.00" type="electric_eco" personCapacity="4">
    <stop lane="320773925_0" triggered="person" />
  </trip>
  <trip id="taxi_8" depart="0.00" type="electric_eco" personCapacity="4">
    <stop lane="502795544#0_0" triggered="person" />
  </trip>
  <trip id="taxi_9" depart="0.00" type="electric_eco" personCapacity="4">
    <stop lane="8915427_0" triggered="person" />
  </trip>
  <trip id="taxi_10" depart="0.00" type="electric_eco" personCapacity="4">
    <stop lane="437556516#11_0" triggered="person" />
  </trip>
  <trip id="taxi_11" depart="0.00" type="electric_eco" personCapacity="4">
    <stop lane="225806045#4_0" triggered="person" />
  </trip>
  <trip id="taxi_12" depart="0.00" type="electric_eco" personCapacity="4">
    <stop lane="-45570790#0_0" triggered="person" />
  </trip>
  <trip id="taxi_13" depart="0.00" type="electric_eco" personCapacity="4">
    <stop lane="142101309#1_0" triggered="person" />
  </trip>
  <trip id="taxi_14" depart="0.00" type="electric_eco" personCapacity="4">
    <stop lane="1041363479#1_0" triggered="person" />
  </trip>
  <trip id="taxi_15" depart="0.00" type="electric_eco" personCapacity="4">
    <stop lane="-283537317#0_0" triggered="person" />
  </trip>
  <trip id="taxi_16" depart="0.00" type="electric_eco" personCapacity="4">
    <stop lane="45007878#0_0" triggered="person" />
  </trip>
  <trip id="taxi_17" depart="0.00" type="electric_eco" personCapacity="4">
    <stop lane="8917166#8_0" triggered="person" />
  </trip>
  <trip id="taxi_18" depart="0.00" type="electric_eco" personCapacity="4">
    <stop lane="968937452#0_0" triggered="person" />
  </trip>
  <trip id="taxi_19" depart="0.00" type="electric_eco" personCapacity="4">
    <stop lane="-254297754_0" triggered="person" />
  </trip>
  <trip id="taxi_20" depart="0.00" type="electric_eco" personCapacity="4">
    <stop lane="27044185#1_0" triggered="person" />
  </trip>
  <trip id="taxi_21" depart="0.00" type="electric_eco" personCapacity="4">
    <stop lane="780006784#0_0" triggered="person" />
  </trip>
  <trip id="taxi_22" depart="0.00" type="electric_eco" personCapacity="4">
    <stop lane="8917722#0_0" triggered="person" />
  </trip>
  <trip id="taxi_23" depart="0.00" type="electric_eco" personCapacity="4">
    <stop lane="621464001_0" triggered="person" />
  </trip>
  <trip id="taxi_24" depart="0.00" type="electric_eco" personCapacity="4">
    <stop lane="-29496503#1_0" triggered="person" />
  </trip>
  <trip id="taxi_25" depart="0.00" type="electric_eco" personCapacity="4">
    <stop lane="513701210_0" triggered="person" />
  </trip>
  <trip id="taxi_26" depart="0.00" type="electric_eco" personCapacity="4">
    <stop lane="50845500#2_0" triggered="person" />
  </trip>
  <trip id="taxi_27" depart="0.00" type="electric_eco" personCapacity="4">
    <stop lane="-8920858_0" triggered="person" />
  </trip>
  <trip id="taxi_28" depart="0.00" type="electric_eco" personCapacity="4">
    <stop lane="8922604#0_0" triggered="person" />
  </trip>
  <trip id="taxi_29" depart="0.00" type="electric_eco" personCapacity="4">
    <stop lane="120256350#0_0" triggered="person" />
  </trip>
  <trip id="taxi_30" depart="0.00" type="electric_eco" personCapacity="4">
    <stop lane="437413082_0" triggered="person" />
  </trip>
  <trip id="taxi_31" depart="0.00" type="electric_eco" personCapacity="4">
    <stop lane="-8920937#0_0" triggered="person" />
  </trip>
  <trip id="taxi_32" depart="0.00" type="electric_eco" personCapacity="4">
    <stop lane="254758114#3_0" triggered="person" />
  </trip>
  <trip id="taxi_33" depart="0.00" type="electric_eco" personCapacity="4">
    <stop lane="1120695898_0" triggered="person" />
  </trip>
  <trip id="taxi_34" depart="0.00" type="electric_eco" personCapacity="4">
    <stop lane="27092233#0_0" triggered="person" />
  </trip>
  <trip id="taxi_35" depart="0.00" type="electric_eco" personCapacity="4">
    <stop lane="737711007_0" triggered="person" />
  </trip>
  <trip id="taxi_36" depart="0.00" type="electric_eco" personCapacity="4">
    <stop lane="27054209_0" triggered="person" />
  </trip>
  <trip id="taxi_37" depart="0.00" type="electric_eco" personCapacity="4">
    <stop lane="398675749#2_0" triggered="person" />
  </trip>
  <trip id="taxi_38" depart="0.00" type="electric_eco" personCapacity="4">
    <stop lane="47184145_0" triggered="person" />
  </trip>
  <trip id="taxi_39" depart="0.00" type="electric_eco" personCapacity="4">
    <stop lane="191319995#1_0" triggered="person" />
  </trip>
  <trip id="taxi_40" depart="0.00" type="electric_eco" personCapacity="4">
    <stop lane="-465227211#1_0" triggered="person" />
  </trip>
  <trip id="taxi_41" depart="0.00" type="electric_eco" personCapacity="4">
    <stop lane="255330036#0_0" triggered="person" />
  </trip>
  <trip id="taxi_42" depart="0.00" type="electric_eco" personCapacity="4">
    <stop lane="620169771#0_0" triggered="person" />
  </trip>
  <trip id="taxi_43" depart="0.00" type="electric_eco" personCapacity="4">
    <stop lane="-437555702#8_0" triggered="person" />
  </trip>
  <trip id="taxi_44" depart="0.00" type="electric_eco" personCapacity="4">
    <stop lane="254758126#0_0" triggered="person" />
  </trip>
  <trip id="taxi_45" depart="0.00" type="electric_eco" personCapacity="4">
    <stop lane="-24547841_0" triggered="person" />
  </trip>
  <trip id="taxi_46" depart="0.00" type="electric_eco" personCapacity="4">
    <stop lane="-721044166#2_0" triggered="person" />
  </trip>
  <trip id="taxi_47" depart="0.00" type="electric_eco" personCapacity="4">
    <stop lane="-1082634592_0" triggered="person" />
  </trip>
  <trip id="taxi_48" depart="0.00" type="electric_eco" personCapacity="4">
    <stop lane="255178130#0_0" triggered="person" />
  </trip>
  <trip id="taxi_49" depart="0.00" type="electric_eco" personCapacity="4">
    <stop lane="47174951_0" triggered="person" />
  </trip>
  <trip id="taxi_50" depart="0.00" type="electric_eco" personCapacity="4">
    <stop lane="-8918191#0_0" triggered="person" />
  </trip>
  <trip id="taxi_51" depart="0.00" type="electric_eco" personCapacity="4">
    <stop lane="437557845#7_0" triggered="person" />
  </trip>
  <trip id="taxi_52" depart="0.00" type="electric_eco" personCapacity="4">
    <stop lane="-566870809#0_0" triggered="person" />
  </trip>
  <trip id="taxi_53" depart="0.00" type="electric_eco" personCapacity="4">
    <stop lane="35977367#7_0" triggered="person" />
  </trip>
  <trip id="taxi_54" depart="0.00" type="electric_eco" personCapacity="4">
    <stop lane="30035754#0_0" triggered="person" />
  </trip>
  <trip id="taxi_55" depart="0.00" type="electric_eco" personCapacity="4">
    <stop lane="468556885#0_0" triggered="person" />
  </trip>
  <trip id="taxi_56" depart="0.00" type="electric_eco" personCapacity="4">
    <stop lane="398681182#0_0" triggered="person" />
  </trip>
  <trip id="taxi_57" depart="0.00" type="electric_eco" personCapacity="4">
    <stop lane="775393066#0_0" triggered="person" />
  </trip>
  <trip id="taxi_58" depart="0.00" type="electric_eco" personCapacity="4">
    <stop lane="513701210_0" triggered="person" />
  </trip>
  <trip id="taxi_59" depart="0.00" type="electric_eco" personCapacity="4">
    <stop lane="-254750804_0" triggered="person" />
  </trip>
  <trip id="taxi_60" depart="0.00" type="electric_eco" personCapacity="4">
    <stop lane="-27054290#1_0" triggered="person" />
  </trip>
  <trip id="taxi_61" depart="0.00" type="electric_eco" personCapacity="4">
    <stop lane="-1208192878#1_0" triggered="person" />
  </trip>
  <trip id="taxi_62" depart="0.00" type="electric_eco" personCapacity="4">
    <stop lane="30831814_0" triggered="person" />
  </trip>
  <trip id="taxi_63" depart="0.00" type="electric_eco" personCapacity="4">
    <stop lane="-996695180#0_0" triggered="person" />
  </trip>
  <trip id="taxi_64" depart="0.00" type="electric_eco" personCapacity="4">
    <stop lane="88572941#0_0" triggered="person" />
  </trip>
  <trip id="taxi_65" depart="0.00" type="electric_eco" personCapacity="4">
    <stop lane="23881019#0_0" triggered="person" />
  </trip>
  <trip id="taxi_66" depart="0.00" type="electric_eco" personCapacity="4">
    <stop lane="769990214#0_0" triggered="person" />
  </trip>
  <trip id="taxi_67" depart="0.00" type="electric_eco" personCapacity="4">
    <stop lane="8917241_0" triggered="person" />
  </trip>
  <trip id="taxi_68" depart="0.00" type="electric_eco" personCapacity="4">
    <stop lane="-225840350_0" triggered="person" />
  </trip>
  <trip id="taxi_69" depart="0.00" type="electric_eco" personCapacity="4">
    <stop lane="-930588346#4_0" triggered="person" />
  </trip>
  <trip id="taxi_70" depart="0.00" type="electric_eco" personCapacity="4">
    <stop lane="-8919709#0_0" triggered="person" />
  </trip>
  <trip id="taxi_71" depart="0.00" type="electric_eco" personCapacity="4">
    <stop lane="8917523#6_0" triggered="person" />
  </trip>
  <trip id="taxi_72" depart="0.00" type="electric_eco" personCapacity="4">
    <stop lane="110353198#1_0" triggered="person" />
  </trip>
  <trip id="taxi_73" depart="0.00" type="electric_eco" personCapacity="4">
    <stop lane="1188700482#0_0" triggered="person" />
  </trip>
  <trip id="taxi_74" depart="0.00" type="electric_eco" personCapacity="4">
    <stop lane="676391935_0" triggered="person" />
  </trip>
  <trip id="taxi_75" depart="0.00" type="electric_eco" personCapacity="4">
    <stop lane="-133856218#2_0" triggered="person" />
  </trip>
  <trip id="taxi_76" depart="0.00" type="electric_eco" personCapacity="4">
    <stop lane="-8916675#4_0" triggered="person" />
  </trip>
  <trip id="taxi_77" depart="0.00" type="electric_eco" personCapacity="4">
    <stop lane="968937454#0_0" triggered="person" />
  </trip>
  <trip id="taxi_78" depart="0.00" type="electric_eco" personCapacity="4">
    <stop lane="-27092632#1_0" triggered="person" />
  </trip>
  <trip id="taxi_79" depart="0.00" type="electric_eco" personCapacity="4">
    <stop lane="-8916831_0" triggered="person" />
  </trip>
  <trip id="taxi_80" depart="0.00" type="electric_eco" personCapacity="4">
    <stop lane="546048996#0_0" triggered="person" />
  </trip>
  <trip id="taxi_81" depart="0.00" type="electric_eco" personCapacity="4">
    <stop lane="-222818884#0_0" triggered="person" />
  </trip>
  <trip id="taxi_82" depart="0.00" type="electric_eco" personCapacity="4">
    <stop lane="8921562#3_0" triggered="person" />
  </trip>
  <trip id="taxi_83" depart="0.00" type="electric_eco" personCapacity="4">
    <stop lane="968937453#0_0" triggered="person" />
  </trip>
  <trip id="taxi_84" depart="0.00" type="electric_eco" personCapacity="4">
    <stop lane="-8916452#1_0" triggered="person" />
  </trip>
  <trip id="taxi_85" depart="0.00" type="electric_eco" personCapacity="4">
    <stop lane="-1086261934_0" triggered="person" />
  </trip>
  <trip id="taxi_86" depart="0.00" type="electric_eco" personCapacity="4">
    <stop lane="44671301#1_0" triggered="person" />
  </trip>
  <trip id="taxi_87" depart="0.00" type="electric_eco" personCapacity="4">
    <stop lane="620169743_0" triggered="person" />
  </trip>
  <trip id="taxi_88" depart="0.00" type="electric_eco" personCapacity="4">
    <stop lane="88572881#0_0" triggered="person" />
  </trip>
  <trip id="taxi_89" depart="0.00" type="electric_eco" personCapacity="4">
    <stop lane="8917927#2_0" triggered="person" />
  </trip>
  <trip id="taxi_90" depart="0.00" type="electric_eco" personCapacity="4">
    <stop lane="-446233234_0" triggered="person" />
  </trip>
  <trip id="taxi_91" depart="0.00" type="electric_eco" personCapacity="4">
    <stop lane="-8922604#1_0" triggered="person" />
  </trip>
  <trip id="taxi_92" depart="0.00" type="electric_eco" personCapacity="4">
    <stop lane="-254759909#5_0" triggered="person" />
  </trip>
  <trip id="taxi_93" depart="0.00" type="electric_eco" personCapacity="4">
    <stop lane="8918957#3_0" triggered="person" />
  </trip>
  <trip id="taxi_94" depart="0.00" type="electric_eco" personCapacity="4">
    <stop lane="-437751146#1_0" triggered="person" />
  </trip>
  <trip id="taxi_95" depart="0.00" type="electric_eco" personCapacity="4">
    <stop lane="-85644959#5_0" triggered="person" />
  </trip>
  <trip id="taxi_96" depart="0.00" type="electric_eco" personCapacity="4">
    <stop lane="283529417#0_0" triggered="person" />
  </trip>
  <trip id="taxi_97" depart="0.00" type="electric_eco" personCapacity="4">
    <stop lane="-8916356_0" triggered="person" />
  </trip>
  <trip id="taxi_98" depart="0.00" type="electric_eco" personCapacity="4">
    <stop lane="8916291_0" triggered="person" />
  </trip>
  <trip id="taxi_99" depart="0.00" type="electric_eco" personCapacity="4">
    <stop lane="-692740252#0_0" triggered="person" />
  </trip>
  <trip id="taxi_100" depart="0.00" type="electric_eco" personCapacity="4">
    <stop lane="-254971063#0_0" triggered="person" />
  </trip>
  <trip id="taxi_101" depart="0.00" type="electric_eco" personCapacity="4">
    <stop lane="254758131#0_0" triggered="person" />
  </trip>
  <trip id="taxi_102" depart="0.00" type="electric_eco" personCapacity="4">
    <stop lane="-469387976#1_0" triggered="person" />
  </trip>
  <trip id="taxi_103" depart="0.00" type="electric_eco" personCapacity="4">
    <stop lane="437541662#5_0" triggered="person" />
  </trip>
  <trip id="taxi_104" depart="0.00" type="electric_eco" personCapacity="4">
    <stop lane="1208201943_0" triggered="person" />
  </trip>
  <trip id="taxi_105" depart="0.00" type="electric_eco" personCapacity="4">
    <stop lane="-8918512#4_0" triggered="person" />
  </trip>
  <trip id="taxi_106" depart="0.00" type="electric_eco" personCapacity="4">
    <stop lane="-89812411#5_0" triggered="person" />
  </trip>
  <trip id="taxi_107" depart="0.00" type="electric_eco" personCapacity="4">
    <stop lane="-30831529#1_0" triggered="person" />
  </trip>
  <trip id="taxi_108" depart="0.00" type="electric_eco" personCapacity="4">
    <stop lane="191010942#3_0" triggered="person" />
  </trip>
  <trip id="taxi_109" depart="0.00" type="electric_eco" personCapacity="4">
    <stop lane="425516651_0" triggered="person" />
  </trip>
  <trip id="taxi_110" depart="0.00" type="electric_eco" personCapacity="4">
    <stop lane="-8920746#3_0" triggered="person" />
  </trip>
  <trip id="taxi_111" depart="0.00" type="electric_eco" personCapacity="4">
    <stop lane="27183379#1_0" triggered="person" />
  </trip>
  <trip id="taxi_112" depart="0.00" type="electric_eco" personCapacity="4">
    <stop lane="-417284150#2_0" triggered="person" />
  </trip>
  <trip id="taxi_113" depart="0.00" type="electric_eco" personCapacity="4">
    <stop lane="416878321#2_0" triggered="person" />
  </trip>
  <trip id="taxi_114" depart="0.00" type="electric_eco" personCapacity="4">
    <stop lane="793183572#0_0" triggered="person" />
  </trip>
  <trip id="taxi_115" depart="0.00" type="electric_eco" personCapacity="4">
    <stop lane="91187856#1_0" triggered="person" />
  </trip>
  <trip id="taxi_116" depart="0.00" type="electric_eco" personCapacity="4">
    <stop lane="27400639#0_0" triggered="person" />
  </trip>
  <trip id="taxi_117" depart="0.00" type="electric_eco" personCapacity="4">
    <stop lane="1111695244#0_0" triggered="person" />
  </trip>
  <trip id="taxi_118" depart="0.00" type="electric_eco" personCapacity="4">
    <stop lane="512523366#1_0" triggered="person" />
  </trip>
  <trip id="taxi_119" depart="0.00" type="electric_eco" personCapacity="4">
    <stop lane="8916466_0" triggered="person" />
  </trip>
  <trip id="taxi_120" depart="0.00" type="electric_eco" personCapacity="4">
    <stop lane="-225840350_0" triggered="person" />
  </trip>
  <trip id="taxi_121" depart="0.00" type="electric_eco" personCapacity="4">
    <stop lane="-8917518#1_0" triggered="person" />
  </trip>
  <trip id="taxi_122" depart="0.00" type="electric_eco" personCapacity="4">
    <stop lane="88597577#2_0" triggered="person" />
  </trip>
  <trip id="taxi_123" depart="0.00" type="electric_eco" personCapacity="4">
    <stop lane="283529429#0_0" triggered="person" />
  </trip>
  <trip id="taxi_124" depart="0.00" type="electric_eco" personCapacity="4">
    <stop lane="-8918622#1_0" triggered="person" />
  </trip>
  <trip id="taxi_125" depart="0.00" type="electric_eco" personCapacity="4">
    <stop lane="224373761_0" triggered="person" />
  </trip>
  <trip id="taxi_126" depart="0.00" type="electric_eco" personCapacity="4">
    <stop lane="397271281_0" triggered="person" />
  </trip>
  <trip id="taxi_127" depart="0.00" type="electric_eco" personCapacity="4">
    <stop lane="224373753#0_0" triggered="person" />
  </trip>
  <trip id="taxi_128" depart="0.00" type="electric_eco" personCapacity="4">
    <stop lane="-8921562#2_0" triggered="person" />
  </trip>
  <trip id="taxi_129" depart="0.00" type="electric_eco" personCapacity="4">
    <stop lane="182668422_0" triggered="person" />
  </trip>
  <trip id="taxi_130" depart="0.00" type="electric_eco" personCapacity="4">
    <stop lane="38850999_0" triggered="person" />
  </trip>
  <trip id="taxi_131" depart="0.00" type="electric_eco" personCapacity="4">
    <stop lane="-8917324#1_0" triggered="person" />
  </trip>
  <trip id="taxi_132" depart="0.00" type="electric_eco" personCapacity="4">
    <stop lane="-8919455#3_0" triggered="person" />
  </trip>
  <trip id="taxi_133" depart="0.00" type="electric_eco" personCapacity="4">
    <stop lane="-514581439#1_0" triggered="person" />
  </trip>
  <trip id="taxi_134" depart="0.00" type="electric_eco" personCapacity="4">
    <stop lane="814613159#4_0" triggered="person" />
  </trip>
  <trip id="taxi_135" depart="0.00" type="electric_eco" personCapacity="4">
    <stop lane="8922597_0" triggered="person" />
  </trip>
  <trip id="taxi_136" depart="0.00" type="electric_eco" personCapacity="4">
    <stop lane="-254982285#3_0" triggered="person" />
  </trip>
  <trip id="taxi_137" depart="0.00" type="electric_eco" personCapacity="4">
    <stop lane="-8914974#0_0" triggered="person" />
  </trip>
  <trip id="taxi_138" depart="0.00" type="electric_eco" personCapacity="4">
    <stop lane="254968957#5_0" triggered="person" />
  </trip>
  <trip id="taxi_139" depart="0.00" type="electric_eco" personCapacity="4">
    <stop lane="-8918989#0_0" triggered="person" />
  </trip>
  <trip id="taxi_140" depart="0.00" type="electric_eco" personCapacity="4">
    <stop lane="1021093206_0" triggered="person" />
  </trip>
  <trip id="taxi_141" depart="0.00" type="electric_eco" personCapacity="4">
    <stop lane="-1032595380#0_0" triggered="person" />
  </trip>
  <trip id="taxi_142" depart="0.00" type="electric_eco" personCapacity="4">
    <stop lane="158468960#0_0" triggered="person" />
  </trip>
  <trip id="taxi_143" depart="0.00" type="electric_eco" personCapacity="4">
    <stop lane="-215848142_0" triggered="person" />
  </trip>
  <trip id="taxi_144" depart="0.00" type="electric_eco" personCapacity="4">
    <stop lane="-1058837742#2_0" triggered="person" />
  </trip>
  <trip id="taxi_145" depart="0.00" type="electric_eco" personCapacity="4">
    <stop lane="-468450103#0_0" triggered="person" />
  </trip>
  <trip id="taxi_146" depart="0.00" type="electric_eco" personCapacity="4">
    <stop lane="41364503_0" triggered="person" />
  </trip>
  <trip id="taxi_147" depart="0.00" type="electric_eco" personCapacity="4">
    <stop lane="-254971068#2_0" triggered="person" />
  </trip>
  <trip id="taxi_148" depart="0.00" type="electric_eco" personCapacity="4">
    <stop lane="8916475_0" triggered="person" />
  </trip>
  <trip id="taxi_149" depart="0.00" type="electric_eco" personCapacity="4">
    <stop lane="-1032783933#1_0" triggered="person" />
  </trip>
  <trip id="taxi_150" depart="0.00" type="electric_eco" personCapacity="4">
    <stop lane="406944764#0_0" triggered="person" />
  </trip>
  <trip id="taxi_151" depart="0.00" type="electric_eco" personCapacity="4">
    <stop lane="254759970#0_0" triggered="person" />
  </trip>
  <trip id="taxi_152" depart="0.00" type="electric_eco" personCapacity="4">
    <stop lane="-483432846_0" triggered="person" />
  </trip>
  <trip id="taxi_153" depart="0.00" type="electric_eco" personCapacity="4">
    <stop lane="-8916562_0" triggered="person" />
  </trip>
  <trip id="taxi_154" depart="0.00" type="electric_eco" personCapacity="4">
    <stop lane="-306338105#2_0" triggered="person" />
  </trip>
  <trip id="taxi_155" depart="0.00" type="electric_eco" personCapacity="4">
    <stop lane="8916282#0_0" triggered="person" />
  </trip>
  <trip id="taxi_156" depart="0.00" type="electric_eco" personCapacity="4">
    <stop lane="148315666#1_0" triggered="person" />
  </trip>
  <trip id="taxi_157" depart="0.00" type="electric_eco" personCapacity="4">
    <stop lane="-158804456#3_0" triggered="person" />
  </trip>
  <trip id="taxi_158" depart="0.00" type="electric_eco" personCapacity="4">
    <stop lane="978694795#0_0" triggered="person" />
  </trip>
  <trip id="taxi_159" depart="0.00" type="electric_eco" personCapacity="4">
    <stop lane="27512055#1_0" triggered="person" />
  </trip>
  <trip id="taxi_160" depart="0.00" type="electric_eco" personCapacity="4">
    <stop lane="617990571#0_0" triggered="person" />
  </trip>
  <trip id="taxi_161" depart="0.00" type="electric_eco" personCapacity="4">
    <stop lane="-797226923_0" triggered="person" />
  </trip>
  <trip id="taxi_162" depart="0.00" type="electric_eco" personCapacity="4">
    <stop lane="27167302_0" triggered="person" />
  </trip>
  <trip id="taxi_163" depart="0.00" type="electric_eco" personCapacity="4">
    <stop lane="120256350#0_0" triggered="person" />
  </trip>
  <trip id="taxi_164" depart="0.00" type="electric_eco" personCapacity="4">
    <stop lane="286117612_0" triggered="person" />
  </trip>
  <trip id="taxi_165" depart="0.00" type="electric_eco" personCapacity="4">
    <stop lane="-8919659_0" triggered="person" />
  </trip>
  <trip id="taxi_166" depart="0.00" type="electric_eco" personCapacity="4">
    <stop lane="474109100#1_0" triggered="person" />
  </trip>
  <trip id="taxi_167" depart="0.00" type="electric_eco" personCapacity="4">
    <stop lane="-8916853#1_0" triggered="person" />
  </trip>
  <trip id="taxi_168" depart="0.00" type="electric_eco" personCapacity="4">
    <stop lane="-8920838_0" triggered="person" />
  </trip>
  <trip id="taxi_169" depart="0.00" type="electric_eco" personCapacity="4">
    <stop lane="-566870077_0" triggered="person" />
  </trip>
  <trip id="taxi_170" depart="0.00" type="electric_eco" personCapacity="4">
    <stop lane="-8920223#1_0" triggered="person" />
  </trip>
  <trip id="taxi_171" depart="0.00" type="electric_eco" personCapacity="4">
    <stop lane="-8921100#9_0" triggered="person" />
  </trip>
  <trip id="taxi_172" depart="0.00" type="electric_eco" personCapacity="4">
    <stop lane="495831132_0" triggered="person" />
  </trip>
  <trip id="taxi_173" depart="0.00" type="electric_eco" personCapacity="4">
    <stop lane="286003244#0_0" triggered="person" />
  </trip>
  <trip id="taxi_174" depart="0.00" type="electric_eco" personCapacity="4">
    <stop lane="-8919851#1_0" triggered="person" />
  </trip>
  <trip id="taxi_175" depart="0.00" type="electric_eco" personCapacity="4">
    <stop lane="28841122#0_0" triggered="person" />
  </trip>
  <trip id="taxi_176" depart="0.00" type="electric_eco" personCapacity="4">
    <stop lane="706531723#0_0" triggered="person" />
  </trip>
  <trip id="taxi_177" depart="0.00" type="electric_eco" personCapacity="4">
    <stop lane="254297759#0_0" triggered="person" />
  </trip>
  <trip id="taxi_178" depart="0.00" type="electric_eco" personCapacity="4">
    <stop lane="32121429#0_0" triggered="person" />
  </trip>
  <trip id="taxi_179" depart="0.00" type="electric_eco" personCapacity="4">
    <stop lane="254759915#1_0" triggered="person" />
  </trip>
  <trip id="taxi_180" depart="0.00" type="electric_eco" personCapacity="4">
    <stop lane="396976080#0_0" triggered="person" />
  </trip>
  <trip id="taxi_181" depart="0.00" type="electric_eco" personCapacity="4">
    <stop lane="-225806053#0_0" triggered="person" />
  </trip>
  <trip id="taxi_182" depart="0.00" type="electric_eco" personCapacity="4">
    <stop lane="-29482569#1_0" triggered="person" />
  </trip>
  <trip id="taxi_183" depart="0.00" type="electric_eco" personCapacity="4">
    <stop lane="225516694_0" triggered="person" />
  </trip>
  <trip id="taxi_184" depart="0.00" type="electric_eco" personCapacity="4">
    <stop lane="26779355_0" triggered="person" />
  </trip>
  <trip id="taxi_185" depart="0.00" type="electric_eco" personCapacity="4">
    <stop lane="513702906#0_0" triggered="person" />
  </trip>
  <trip id="taxi_186" depart="0.00" type="electric_eco" personCapacity="4">
    <stop lane="682515406_0" triggered="person" />
  </trip>
  <trip id="taxi_187" depart="0.00" type="electric_eco" personCapacity="4">
    <stop lane="-86331259#0_0" triggered="person" />
  </trip>
  <trip id="taxi_188" depart="0.00" type="electric_eco" personCapacity="4">
    <stop lane="24335220_0" triggered="person" />
  </trip>
  <trip id="taxi_189" depart="0.00" type="electric_eco" personCapacity="4">
    <stop lane="1030276936#0_0" triggered="person" />
  </trip>
  <trip id="taxi_190" depart="0.00" type="electric_eco" personCapacity="4">
    <stop lane="8916469#1_0" triggered="person" />
  </trip>
  <trip id="taxi_191" depart="0.00" type="electric_eco" personCapacity="4">
    <stop lane="286492456_0" triggered="person" />
  </trip>
  <trip id="taxi_192" depart="0.00" type="electric_eco" personCapacity="4">
    <stop lane="26378102_0" triggered="person" />
  </trip>
  <trip id="taxi_193" depart="0.00" type="electric_eco" personCapacity="4">
    <stop lane="-255351706#0_0" triggered="person" />
  </trip>
  <trip id="taxi_194" depart="0.00" type="electric_eco" personCapacity="4">
    <stop lane="286330683#1_0" triggered="person" />
  </trip>
  <trip id="taxi_195" depart="0.00" type="electric_eco" personCapacity="4">
    <stop lane="-419755793_0" triggered="person" />
  </trip>
  <trip id="taxi_196" depart="0.00" type="electric_eco" personCapacity="4">
    <stop lane="717765728#0_0" triggered="person" />
  </trip>
  <trip id="taxi_197" depart="0.00" type="electric_eco" personCapacity="4">
    <stop lane="-224200969#2_0" triggered="person" />
  </trip>
  <trip id="taxi_198" depart="0.00" type="electric_eco" personCapacity="4">
    <stop lane="96790501#1_0" triggered="person" />
  </trip>
  <trip id="taxi_199" depart="0.00" type="electric_eco" personCapacity="4">
    <stop lane="88396418#0_0" triggered="person" />
  </trip>
  <trip id="taxi_200" depart="0.00" type="electric_eco" personCapacity="4">
    <stop lane="682727087_0" triggered="person" />
  </trip>
  <trip id="taxi_201" depart="0.00" type="electric_eco" personCapacity="4">
    <stop lane="143617584#0_0" triggered="person" />
  </trip>
  <trip id="taxi_202" depart="0.00" type="electric_eco" personCapacity="4">
    <stop lane="1010488207_0" triggered="person" />
  </trip>
  <trip id="taxi_203" depart="0.00" type="electric_eco" personCapacity="4">
    <stop lane="-155373682#0_0" triggered="person" />
  </trip>
  <trip id="taxi_204" depart="0.00" type="electric_eco" personCapacity="4">
    <stop lane="-446598001#5_0" triggered="person" />
  </trip>
  <trip id="taxi_205" depart="0.00" type="electric_eco" personCapacity="4">
    <stop lane="-225806051#1_0" triggered="person" />
  </trip>
  <trip id="taxi_206" depart="0.00" type="electric_eco" personCapacity="4">
    <stop lane="133856295_0" triggered="person" />
  </trip>
  <trip id="taxi_207" depart="0.00" type="electric_eco" personCapacity="4">
    <stop lane="255178176#0_0" triggered="person" />
  </trip>
  <trip id="taxi_208" depart="0.00" type="electric_eco" personCapacity="4">
    <stop lane="-771409386#2_0" triggered="person" />
  </trip>
  <trip id="taxi_209" depart="0.00" type="electric_eco" personCapacity="4">
    <stop lane="8916760#0_0" triggered="person" />
  </trip>
  <trip id="taxi_210" depart="0.00" type="electric_eco" personCapacity="4">
    <stop lane="254758114#3_0" triggered="person" />
  </trip>
  <trip id="taxi_211" depart="0.00" type="electric_eco" personCapacity="4">