<?xml version='1.0' encoding='utf-8'?>
<routes>
  <vType id="electric_eco" vClass="taxi" color="0,1,0" emissionClass="Energy">
    <param key="has.taxi.device" value="true" />
  </vType>
  <vType id="diesel_normal" vClass="taxi" color="1,0,0" emissionClass="HBEFA3/PC_D_EU4">
    <param key="has.taxi.device" value="true" />
  </vType>
  <vType id="gas_modern" vClass="taxi" color="0,0,1" emissionClass="HBEFA3/PC_G_EU6">
    <param key="has.taxi.device" value="true" />
  </vType>
  <vType id="zero_emis" vClass="taxi" color="0.5,0.5,0" emissionClass="Zero">
    <param key="has.taxi.device" value="true" />
  </vType>
  <trip id="taxi_0" depart="0.00" type="electric_eco" personCapacity="4">
    <stop lane="693633428#1_0" triggered="person" />
  </trip>
  <trip id="taxi_1" depart="0.00" type="electric_eco" personCapacity="4">
    <stop lane="27028605_0" triggered="person" />
  </trip>
  <trip id="taxi_2" depart="0.00" type="electric_eco" personCapacity="4">
    <stop lane="437536521#8_0" triggered="person" />
  </trip>
  <trip id="taxi_3" depart="0.00" type="electric_eco" personCapacity="4">
    <stop lane="8916663#2_0" triggered="person" />
  </trip>
  <trip id="taxi_4" depart="0.00" type="electric_eco" personCapacity="4">
    <stop lane="84733312#0_0" triggered="person" />
  </trip>
  <trip id="taxi_5" depart="0.00" type="electric_eco" personCapacity="4">
    <stop lane="-254396705#3_0" triggered="person" />
  </trip>
  <trip id="taxi_6" depart="0.00" type="electric_eco" personCapacity="4">
    <stop lane="-8918836#4_0" triggered="person" />
  </trip>
  <trip id="taxi_7" depart="0.00" type="electric_eco" personCapacity="4">
    <stop lane="86331207#0_0" triggered="person" />
  </trip>
  <trip id="taxi_8" depart="0.00" type="electric_eco" personCapacity="4">
    <stop lane="-8922743#1_0" triggered="person" />
  </trip>
  <trip id="taxi_9" depart="0.00" type="electric_eco" personCapacity="4">
    <stop lane="-513933050_0" triggered="person" />
  </trip>
  <trip id="taxi_10" depart="0.00" type="electric_eco" personCapacity="4">
    <stop lane="-8916543#4_0" triggered="person" />
  </trip>
  <trip id="taxi_11" depart="0.00" type="electric_eco" personCapacity="4">
    <stop lane="1052595479_0" triggered="person" />
  </trip>
  <trip id="taxi_12" depart="0.00" type="electric_eco" personCapacity="4">
    <stop lane="-8919077#0_0" triggered="person" />
  </trip>
  <trip id="taxi_13" depart="0.00" type="electric_eco" personCapacity="4">
    <stop lane="1047613705#0_0" triggered="person" />
  </trip>
  <trip id="taxi_14" depart="0.00" type="electric_eco" personCapacity="4">
    <stop lane="437413082_0" triggered="person" />
  </trip>
  <trip id="taxi_15" depart="0.00" type="electric_eco" personCapacity="4">
    <stop lane="-E43_0" triggered="person" />
  </trip>
  <trip id="taxi_16" depart="0.00" type="electric_eco" personCapacity="4">
    <stop lane="8918840_0" triggered="person" />
  </trip>
  <trip id="taxi_17" depart="0.00" type="electric_eco" personCapacity="4">
    <stop lane="24005438_0" triggered="person" />
  </trip>
  <trip id="taxi_18" depart="0.00" type="electric_eco" personCapacity="4">
    <stop lane="1216148104#3_0" triggered="person" />
  </trip>
  <trip id="taxi_19" depart="0.00" type="electric_eco" personCapacity="4">
    <stop lane="-158804456#2_0" triggered="person" />
  </trip>
  <trip id="taxi_20" depart="0.00" type="electric_eco" personCapacity="4">
    <stop lane="27028360#3_0" triggered="person" />
  </trip>
  <trip id="taxi_21" depart="0.00" type="electric_eco" personCapacity="4">
    <stop lane="161493573_0" triggered="person" />
  </trip>
  <trip id="taxi_22" depart="0.00" type="electric_eco" personCapacity="4">
    <stop lane="8917660#0_0" triggered="person" />
  </trip>
  <trip id="taxi_23" depart="0.00" type="electric_eco" personCapacity="4">
    <stop lane="-204967527#3_0" triggered="person" />
  </trip>
  <trip id="taxi_24" depart="0.00" type="electric_eco" personCapacity="4">
    <stop lane="28694503_0" triggered="person" />
  </trip>
  <trip id="taxi_25" depart="0.00" type="electric_eco" personCapacity="4">
    <stop lane="-8920914#1_0" triggered="person" />
  </trip>
  <trip id="taxi_26" depart="0.00" type="electric_eco" personCapacity="4">
    <stop lane="255351725#8_0" triggered="person" />
  </trip>
  <trip id="taxi_27" depart="0.00" type="electric_eco" personCapacity="4">
    <stop lane="437413082_0" triggered="person" />
  </trip>
  <trip id="taxi_28" depart="0.00" type="electric_eco" personCapacity="4">
    <stop lane="396961254#0_0" triggered="person" />
  </trip>
  <trip id="taxi_29" depart="0.00" type="electric_eco" personCapacity="4">
    <stop lane="133755909_0" triggered="person" />
  </trip>
  <trip id="taxi_30" depart="0.00" type="electric_eco" personCapacity="4">
    <stop lane="8917657#2_0" triggered="person" />
  </trip>
  <trip id="taxi_31" depart="0.00" type="electric_eco" personCapacity="4">
    <stop lane="-8921579#2_0" triggered="person" />
  </trip>
  <trip id="taxi_32" depart="0.00" type="electric_eco" personCapacity="4">
    <stop lane="254971054#0_0" triggered="person" />
  </trip>
  <trip id="taxi_33" depart="0.00" type="electric_eco" personCapacity="4">
    <stop lane="8918029#3_0" triggered="person" />
  </trip>
  <trip id="taxi_34" depart="0.00" type="electric_eco" personCapacity="4">
    <stop lane="254396716#7_0" triggered="person" />
  </trip>
  <trip id="taxi_35" depart="0.00" type="electric_eco" personCapacity="4">
    <stop lane="-8916833#4_0" triggered="person" />
  </trip>
  <trip id="taxi_36" depart="0.00" type="electric_eco" personCapacity="4">
    <stop lane="255330057#0_0" triggered="person" />
  </trip>
  <trip id="taxi_37" depart="0.00" type="electric_eco" personCapacity="4">
    <stop lane="158804460#3_0" triggered="person" />
  </trip>
  <trip id="taxi_38" depart="0.00" type="electric_eco" personCapacity="4">
    <stop lane="27054293#0_0" triggered="person" />
  </trip>
  <trip id="taxi_39" depart="0.00" type="electric_eco" personCapacity="4">
    <stop lane="437413082_0" triggered="person" />
  </trip>
  <trip id="taxi_40" depart="0.00" type="electric_eco" personCapacity="4">
    <stop lane="-277480424_0" triggered="person" />
  </trip>
  <trip id="taxi_41" depart="0.00" type="electric_eco" personCapacity="4">
    <stop lane="678902224#1_0" triggered="person" />
  </trip>
  <trip id="taxi_42" depart="0.00" type="electric_eco" personCapacity="4">
    <stop lane="437555702#10_0" triggered="person" />
  </trip>
  <trip id="taxi_43" depart="0.00" type="electric_eco" personCapacity="4">
    <stop lane="-254759921#0_0" triggered="person" />
  </trip>
  <trip id="taxi_44" depart="0.00" type="electric_eco" personCapacity="4">
    <stop lane="-437551083#2_0" triggered="person" />
  </trip>
  <trip id="taxi_45" depart="0.00" type="electric_eco" personCapacity="4">
    <stop lane="-8919402#6_0" triggered="person" />
  </trip>
  <trip id="taxi_46" depart="0.00" type="electric_eco" personCapacity="4">
    <stop lane="8919832#3_0" triggered="person" />
  </trip>
  <trip id="taxi_47" depart="0.00" type="electric_eco" personCapacity="4">
    <stop lane="-417105397_0" triggered="person" />
  </trip>
  <trip id="taxi_48" depart="0.00" type="electric_eco" personCapacity="4">
    <stop lane="-278725686#2_0" triggered="person" />
  </trip>
  <trip id="taxi_49" depart="0.00" type="electric_eco" personCapacity="4">
    <stop lane="-254971068#2_0" triggered="person" />
  </trip>
  <trip id="taxi_50" depart="0.00" type="electric_eco" personCapacity="4">
    <stop lane="8917814#1_0" triggered="person" />
  </trip>
  <trip id="taxi_51" depart="0.00" type="electric_eco" personCapacity="4">
    <stop lane="254756525#0_0" triggered="person" />
  </trip>
  <trip id="taxi_52" depart="0.00" type="electric_eco" personCapacity="4">
    <stop lane="437533751#0_0" triggered="person" />
  </trip>
  <trip id="taxi_53" depart="0.00" type="electric_eco" personCapacity="4">
    <stop lane="255351721#0_0" triggered="person" />
  </trip>
  <trip id="taxi_54" depart="0.00" type="electric_eco" personCapacity="4">
    <stop lane="224199018#6_0" triggered="person" />
  </trip>
  <trip id="taxi_55" depart="0.00" type="electric_eco" personCapacity="4">
    <stop lane="224199018#3_0" triggered="person" />
  </trip>
  <trip id="taxi_56" depart="0.00" type="electric_eco" personCapacity="4">
    <stop lane="-8917231_0" triggered="person" />
  </trip>
  <trip id="taxi_57" depart="0.00" type="electric_eco" personCapacity="4">
    <stop lane="-224384031#0_0" triggered="person" />
  </trip>
  <trip id="taxi_58" depart="0.00" type="electric_eco" personCapacity="4">
    <stop lane="240738468#0_0" triggered="person" />
  </trip>
  <trip id="taxi_59" depart="0.00" type="electric_eco" personCapacity="4">
    <stop lane="-148315666#0_0" triggered="person" />
  </trip>
  <trip id="taxi_60" depart="0.00" type="electric_eco" personCapacity="4">
    <stop lane="-8919370#3_0" triggered="person" />
  </trip>
  <trip id="taxi_61" depart="0.00" type="electric_eco" personCapacity="4">
    <stop lane="158804429_0" triggered="person" />
  </trip>
  <trip id="taxi_62" depart="0.00" type="electric_eco" personCapacity="4">
    <stop lane="425516648_0" triggered="person" />
  </trip>
  <trip id="taxi_63" depart="0.00" type="electric_eco" personCapacity="4">
    <stop lane="-8917603#2_0" triggered="person" />
  </trip>
  <trip id="taxi_64" depart="0.00" type="electric_eco" personCapacity="4">
    <stop lane="123741454_0" triggered="person" />
  </trip>
  <trip id="taxi_65" depart="0.00" type="electric_eco" personCapacity="4">
    <stop lane="686250330#0_0" triggered="person" />
  </trip>
  <trip id="taxi_66" depart="0.00" type="electric_eco" personCapacity="4">
    <stop lane="-396966242_0" triggered="person" />
  </trip>
  <trip id="taxi_67" depart="0.00" type="electric_eco" personCapacity="4">
    <stop lane="24604610#1_0" triggered="person" />
  </trip>
  <trip id="taxi_68" depart="0.00" type="electric_eco" personCapacity="4">
    <stop lane="32949491#5_0" triggered="person" />
  </trip>
  <trip id="taxi_69" depart="0.00" type="electric_eco" personCapacity="4">
    <stop lane="-437555046#2_0" triggered="person" />
  </trip>
  <trip id="taxi_70" depart="0.00" type="electric_eco" personCapacity="4">
    <stop lane="-E6_0" triggered="person" />
  </trip>
  <trip id="taxi_71" depart="0.00" type="electric_eco" personCapacity="4">
    <stop lane="258144381#4_0" triggered="person" />
  </trip>
  <trip id="taxi_72" depart="0.00" type="electric_eco" personCapacity="4">
    <stop lane="8917131_0" triggered="person" />
  </trip>
  <trip id="taxi_73" depart="0.00" type="electric_eco" personCapacity="4">
    <stop lane="-255178118_0" triggered="person" />
  </trip>
  <trip id="taxi_74" depart="0.00" type="electric_eco" personCapacity="4">
    <stop lane="762957925#2_0" triggered="person" />
  </trip>
  <trip id="taxi_75" depart="0.00" type="electric_eco" personCapacity="4">
    <stop lane="-29480941#3_0" triggered="person" />
  </trip>
  <trip id="taxi_76" depart="0.00" type="electric_eco" personCapacity="4">
    <stop lane="26786644#0_0" triggered="person" />
  </trip>
  <trip id="taxi_77" depart="0.00" type="electric_eco" personCapacity="4">
    <stop lane="254759957#0_0" triggered="person" />
  </trip>
  <trip id="taxi_78" depart="0.00" type="electric_eco" personCapacity="4">
    <stop lane="437433228#2_0" triggered="person" />
  </trip>
  <trip id="taxi_79" depart="0.00" type="electric_eco" personCapacity="4">
    <stop lane="8917771#2_0" triggered="person" />
  </trip>
  <trip id="taxi_80" depart="0.00" type="electric_eco" personCapacity="4">
    <stop lane="-8922388#1_0" triggered="person" />
  </trip>
  <trip id="taxi_81" depart="0.00" type="electric_eco" personCapacity="4">
    <stop lane="-8916853#2_0" triggered="person" />
  </trip>
  <trip id="taxi_82" depart="0.00" type="electric_eco" personCapacity="4">
    <stop lane="-8921100#0_0" triggered="person" />
  </trip>
  <trip id="taxi_83" depart="0.00" type="electric_eco" personCapacity="4">
    <stop lane="8920054#3_0" triggered="person" />
  </trip>
  <trip id="taxi_84" depart="0.00" type="electric_eco" personCapacity="4">
    <stop lane="850162153_0" triggered="person" />
  </trip>
  <trip id="taxi_85" depart="0.00" type="electric_eco" personCapacity="4">
    <stop lane="27397692#0_0" triggered="person" />
  </trip>
  <trip id="taxi_86" depart="0.00" type="electric_eco" personCapacity="4">
    <stop lane="158468968#1_0" triggered="person" />
  </trip>
  <trip id="taxi_87" depart="0.00" type="electric_eco" personCapacity="4">
    <stop lane="-8914961#0_0" triggered="person" />
  </trip>
  <trip id="taxi_88" depart="0.00" type="electric_eco" personCapacity="4">
    <stop lane="-120257662_0" triggered="person" />
  </trip>
  <trip id="taxi_89" depart="0.00" type="electric_eco" personCapacity="4">
    <stop lane="437413082_0" triggered="person" />
  </trip>
  <trip id="taxi_90" depart="0.00" type="electric_eco" personCapacity="4">
    <stop lane="47108592#2_0" triggered="person" />
  </trip>
  <trip id="taxi_91" depart="0.00" type="electric_eco" personCapacity="4">
    <stop lane="406944765_0" triggered="person" />
  </trip>
  <trip id="taxi_92" depart="0.00" type="electric_eco" personCapacity="4">
    <stop lane="29059495#0_0" triggered="person" />
  </trip>
  <trip id="taxi_93" depart="0.00" type="electric_eco" personCapacity="4">
    <stop lane="8917561_0" triggered="person" />
  </trip>
  <trip id="taxi_94" depart="0.00" type="electric_eco" personCapacity="4">
    <stop lane="8918773#2_0" triggered="person" />
  </trip>
  <trip id="taxi_95" depart="0.00" type="electric_eco" personCapacity="4">
    <stop lane="-255178177#0_0" triggered="person" />
  </trip>
  <trip id="taxi_96" depart="0.00" type="electric_eco" personCapacity="4">
    <stop lane="255170284#1_0" triggered="person" />
  </trip>
  <trip id="taxi_97" depart="0.00" type="electric_eco" personCapacity="4">
    <stop lane="55798334#1_0" triggered="person" />
  </trip>
  <trip id="taxi_98" depart="0.00" type="electric_eco" personCapacity="4">
    <stop lane="8916631_0" triggered="person" />
  </trip>
  <trip id="taxi_99" depart="0.00" type="electric_eco" personCapacity="4">
    <stop lane="989334074#3_0" triggered="person" />
  </trip>
  <trip id="taxi_100" depart="0.00" type="electric_eco" personCapacity="4">
    <stop lane="8916833#4_0" triggered="person" />
  </trip>
  <trip id="taxi_101" depart="0.00" type="electric_eco" personCapacity="4">
    <stop lane="27147677#1_0" triggered="person" />
  </trip>
  <trip id="taxi_102" depart="0.00" type="electric_eco" personCapacity="4">
    <stop lane="225854639#2_0" triggered="person" />
  </trip>
  <trip id="taxi_103" depart="0.00" type="electric_eco" personCapacity="4">
    <stop lane="-8916953#1_0" triggered="person" />
  </trip>
  <trip id="taxi_104" depart="0.00" type="electric_eco" personCapacity="4">
    <stop lane="-24335486#1_0" triggered="person" />
  </trip>
  <trip id="taxi_105" depart="0.00" type="electric_eco" personCapacity="4">
    <stop lane="8915645_0" triggered="person" />
  </trip>
  <trip id="taxi_106" depart="0.00" type="electric_eco" personCapacity="4">
    <stop lane="-680429721#1_0" triggered="person" />
  </trip>
  <trip id="taxi_107" depart="0.00" type="electric_eco" personCapacity="4">
    <stop lane="-375747146_0" triggered="person" />
  </trip>
  <trip id="taxi_108" depart="0.00" type="electric_eco" personCapacity="4">
    <stop lane="8915699_0" triggered="person" />
  </trip>
  <trip id="taxi_109" depart="0.00" type="electric_eco" personCapacity="4">
    <stop lane="1057808746#0_0" triggered="person" />
  </trip>
  <trip id="taxi_110" depart="0.00" type="electric_eco" personCapacity="4">
    <stop lane="-514619758_0" triggered="person" />
  </trip>
  <trip id="taxi_111" depart="0.00" type="electric_eco" personCapacity="4">
    <stop lane="-89812411#4_0" triggered="person" />
  </trip>
  <trip id="taxi_112" depart="0.00" type="electric_eco" personCapacity="4">
    <stop lane="488350036#0_0" triggered="person" />
  </trip>
  <trip id="taxi_113" depart="0.00" type="electric_eco" personCapacity="4">
    <stop lane="-1111695244#4_0" triggered="person" />
  </trip>
  <trip id="taxi_114" depart="0.00" type="electric_eco" personCapacity="4">
    <stop lane="-437559493#3_0" triggered="person" />
  </trip>
  <trip id="taxi_115" depart="0.00" type="electric_eco" personCapacity="4">
    <stop lane="254971070#3_0" triggered="person" />
  </trip>
  <trip id="taxi_116" depart="0.00" type="electric_eco" personCapacity="4">
    <stop lane="717666829#1_0" triggered="person" />
  </trip>
  <trip id="taxi_117" depart="0.00" type="electric_eco" personCapacity="4">
    <stop lane="397146706#0_0" triggered="person" />
  </trip>
  <trip id="taxi_118" depart="0.00" type="electric_eco" personCapacity="4">
    <stop lane="617895234_0" triggered="person" />
  </trip>
  <trip id="taxi_119" depart="0.00" type="electric_eco" personCapacity="4">
    <stop lane="683038356#0_0" triggered="person" />
  </trip>
  <trip id="taxi_120" depart="0.00" type="electric_eco" personCapacity="4">
    <stop lane="919204680#0_0" triggered="person" />
  </trip>
  <trip id="taxi_121" depart="0.00" type="electric_eco" personCapacity="4">
    <stop lane="-147496074#2_0" triggered="person" />
  </trip>
  <trip id="taxi_122" depart="0.00" type="electric_eco" personCapacity="4">
    <stop lane="761340401#2_0" triggered="person" />
  </trip>
  <trip id="taxi_123" depart="0.00" type="electric_eco" personCapacity="4">
    <stop lane="-8920520#5_0" triggered="person" />
  </trip>
  <trip id="taxi_124" depart="0.00" type="electric_eco" personCapacity="4">
    <stop lane="191297197#2_0" triggered="person" />
  </trip>
  <trip id="taxi_125" depart="0.00" type="electric_eco" personCapacity="4">
    <stop lane="-254759918#1_0" triggered="person" />
  </trip>
  <trip id="taxi_126" depart="0.00" type="electric_eco" personCapacity="4">
    <stop lane="32121433#0_0" triggered="person" />
  </trip>
  <trip id="taxi_127" depart="0.00" type="electric_eco" personCapacity="4">
    <stop lane="8916788_0" triggered="person" />
  </trip>
  <trip id="taxi_128" depart="0.00" type="electric_eco" personCapacity="4">
    <stop lane="-85562509#2_0" triggered="person" />
  </trip>
  <trip id="taxi_129" depart="0.00" type="electric_eco" personCapacity="4">
    <stop lane="254971066#1_0" triggered="person" />
  </trip>
  <trip id="taxi_130" depart="0.00" type="electric_eco" personCapacity="4">
    <stop lane="254968950#9_0" triggered="person" />
  </trip>
  <trip id="taxi_131" depart="0.00" type="electric_eco" personCapacity="4">
    <stop lane="186400365#0_0" triggered="person" />
  </trip>
  <trip id="taxi_132" depart="0.00" type="electric_eco" personCapacity="4">
    <stop lane="225806050#8_0" triggered="person" />
  </trip>
  <trip id="taxi_133" depart="0.00" type="electric_eco" personCapacity="4">
    <stop lane="-306788551#2_0" triggered="person" />
  </trip>
  <trip id="taxi_134" depart="0.00" type="electric_eco" personCapacity="4">
    <stop lane="133376107_0" triggered="person" />
  </trip>
  <trip id="taxi_135" depart="0.00" type="electric_eco" personCapacity="4">
    <stop lane="8917619_0" triggered="person" />
  </trip>
  <trip id="taxi_136" depart="0.00" type="electric_eco" personCapacity="4">
    <stop lane="32121425#0_0" triggered="person" />
  </trip>
  <trip id="taxi_137" depart="0.00" type="electric_eco" personCapacity="4">
    <stop lane="969998983#0_0" triggered="person" />
  </trip>
  <trip id="taxi_138" depart="0.00" type="electric_eco" personCapacity="4">
    <stop lane="683038356#5_0" triggered="person" />
  </trip>
  <trip id="taxi_139" depart="0.00" type="electric_eco" personCapacity="4">
    <stop lane="8918784_0" triggered="person" />
  </trip>
  <trip id="taxi_140" depart="0.00" type="electric_eco" personCapacity="4">
    <stop lane="-1193481407_0" triggered="person" />
  </trip>
  <trip id="taxi_141" depart="0.00" type="electric_eco" personCapacity="4">
    <stop lane="-437556516#10_0" triggered="person" />
  </trip>
  <trip id="taxi_142" depart="0.00" type="electric_eco" personCapacity="4">
    <stop lane="133856268#5_0" triggered="person" />
  </trip>
  <trip id="taxi_143" depart="0.00" type="electric_eco" personCapacity="4">
    <stop lane="28670706#1_0" triggered="person" />
  </trip>
  <trip id="taxi_144" depart="0.00" type="electric_eco" personCapacity="4">
    <stop lane="-28738276#1_0" triggered="person" />
  </trip>
  <trip id="taxi_145" depart="0.00" type="electric_eco" personCapacity="4">
    <stop lane="1112250557#2_0" triggered="person" />
  </trip>
  <trip id="taxi_146" depart="0.00" type="electric_eco" personCapacity="4">
    <stop lane="162470926#2_0" triggered="person" />
  </trip>
  <trip id="taxi_147" depart="0.00" type="electric_eco" personCapacity="4">
    <stop lane="31129771_0" triggered="person" />
  </trip>
  <trip id="taxi_148" depart="0.00" type="electric_eco" personCapacity="4">
    <stop lane="8917743_0" triggered="person" />
  </trip>
  <trip id="taxi_149" depart="0.00" type="electric_eco" personCapacity="4">
    <stop lane="-251572743#0_0" triggered="person" />
  </trip>
  <trip id="taxi_150" depart="0.00" type="electric_eco" personCapacity="4">
    <stop lane="-133743850_0" triggered="person" />
  </trip>
  <trip id="taxi_151" depart="0.00" type="electric_eco" personCapacity="4">
    <stop lane="-87376703#1_0" triggered="person" />
  </trip>
  <trip id="taxi_152" depart="0.00" type="electric_eco" personCapacity="4">
    <stop lane="-158804475#1_0" triggered="person" />
  </trip>
  <trip id="taxi_153" depart="0.00" type="electric_eco" personCapacity="4">
    <stop lane="488350036#2_0" triggered="person" />
  </trip>
  <trip id="taxi_154" depart="0.00" type="electric_eco" personCapacity="4">
    <stop lane="-437558265#5_0" triggered="person" />
  </trip>
  <trip id="taxi_155" depart="0.00" type="electric_eco" personCapacity="4">
    <stop lane="8917367#3_0" triggered="person" />
  </trip>
  <trip id="taxi_156" depart="0.00" type="electric_eco" personCapacity="4">
    <stop lane="437555702#1_0" triggered="person" />
  </trip>
  <trip id="taxi_157" depart="0.00" type="electric_eco" personCapacity="4">
    <stop lane="619535754#1_0" triggered="person" />
  </trip>
  <trip id="taxi_158" depart="0.00" type="electric_eco" personCapacity="4">
    <stop lane="1041363479#1_0" triggered="person" />
  </trip>
  <trip id="taxi_159" depart="0.00" type="electric_eco" personCapacity="4">
    <stop lane="8922429#0_0" triggered="person" />
  </trip>
  <trip id="taxi_160" depart="0.00" type="electric_eco" personCapacity="4">
    <stop lane="110800712#2_0" triggered="person" />
  </trip>
  <trip id="taxi_161" depart="0.00" type="electric_eco" personCapacity="4">
    <stop lane="255170238#5_0" triggered="person" />
  </trip>
  <trip id="taxi_162" depart="0.00" type="electric_eco" personCapacity="4">
    <stop lane="535325240_0" triggered="person" />
  </trip>
  <trip id="taxi_163" depart="0.00" type="electric_eco" personCapacity="4">
    <stop lane="26943482#0_0" triggered="person" />
  </trip>
  <trip id="taxi_164" depart="0.00" type="electric_eco" personCapacity="4">
    <stop lane="-27145510#2_0" triggered="person" />
  </trip>
  <trip id="taxi_165" depart="0.00" type="electric_eco" personCapacity="4">
    <stop lane="-8920094#1_0" triggered="person" />
  </trip>
  <trip id="taxi_166" depart="0.00" type="electric_eco" personCapacity="4">
    <stop lane="87297166_0" triggered="person" />
  </trip>
  <trip id="taxi_167" depart="0.00" type="electric_eco" personCapacity="4">
    <stop lane="-686246694_0" triggered="person" />
  </trip>
  <trip id="taxi_168" depart="0.00" type="electric_eco" personCapacity="4">
    <stop lane="8918971_0" triggered="person" />
  </trip>
  <trip id="taxi_169" depart="0.00" type="electric_eco" personCapacity="4">
    <stop lane="-425624293_0" triggered="person" />
  </trip>
  <trip id="taxi_170" depart="0.00" type="electric_eco" personCapacity="4">
    <stop lane="-26966365_0" triggered="person" />
  </trip>
  <trip id="taxi_171" depart="0.00" type="electric_eco" personCapacity="4">
    <stop lane="620728114#0_0" triggered="person" />
  </trip>
  <trip id="taxi_172" depart="0.00" type="electric_eco" personCapacity="4">
    <stop lane="468000212_0" triggered="person" />
  </trip>
  <trip id="taxi_173" depart="0.00" type="electric_eco" personCapacity="4">
    <stop lane="-286299595#1_0" triggered="person" />
  </trip>
  <trip id="taxi_174" depart="0.00" type="electric_eco" personCapacity="4">
    <stop lane="-437559252#4_0" triggered="person" />
  </trip>
  <trip id="taxi_175" depart="0.00" type="electric_eco" personCapacity="4">
    <stop lane="254466695_0" triggered="person" />
  </trip>
  <trip id="taxi_176" depart="0.00" type="electric_eco" personCapacity="4">
    <stop lane="1032777737#0_0" triggered="person" />
  </trip>
  <trip id="taxi_177" depart="0.00" type="electric_eco" personCapacity="4">
    <stop lane="514231187_0" triggered="person" />
  </trip>
  <trip id="taxi_178" depart="0.00" type="electric_eco" personCapacity="4">
    <stop lane="391860316#0_0" triggered="person" />
  </trip>
  <trip id="taxi_179" depart="0.00" type="electric_eco" personCapacity="4">
    <stop lane="468450103#4_0" triggered="person" />
  </trip>
  <trip id="taxi_180" depart="0.00" type="electric_eco" personCapacity="4">
    <stop lane="1035093273_0" triggered="person" />
  </trip>
  <trip id="taxi_181" depart="0.00" type="electric_eco" personCapacity="4">
    <stop lane="162812824#10_0" triggered="person" />
  </trip>
  <trip id="taxi_182" depart="0.00" type="electric_eco" personCapacity="4">
    <stop lane="85562496#0_0" triggered="person" />
  </trip>
  <trip id="taxi_183" depart="0.00" type="electric_eco" personCapacity="4">
    <stop lane="-133743835_0" triggered="person" />
  </trip>
  <trip id="taxi_184" depart="0.00" type="electric_eco" personCapacity="4">
    <stop lane="28809027#1_0" triggered="person" />
  </trip>
  <trip id="taxi_185" depart="0.00" type="electric_eco" personCapacity="4">
    <stop lane="254299121#0_0" triggered="person" />
  </trip>
  <trip id="taxi_186" depart="0.00" type="electric_eco" personCapacity="4">
    <stop lane="254971069#0_0" triggered="person" />
  </trip>
  <trip id="taxi_187" depart="0.00" type="electric_eco" personCapacity="4">
    <stop lane="475457029#1_0" triggered="person" />
  </trip>
  <trip id="taxi_188" depart="0.00" type="electric_eco" personCapacity="4">
    <stop lane="-148902181#1_0" triggered="person" />
  </trip>
  <trip id="taxi_189" depart="0.00" type="electric_eco" personCapacity="4">
    <stop lane="-24547810#1_0" triggered="person" />
  </trip>
  <trip id="taxi_190" depart="0.00" type="electric_eco" personCapacity="4">
    <stop lane="8916945#2_0" triggered="person" />
  </trip>
  <trip id="taxi_191" depart="0.00" type="electric_eco" personCapacity="4">
    <stop lane="-853534672_0" triggered="person" />
  </trip>
  <trip id="taxi_192" depart="0.00" type="electric_eco" personCapacity="4">
    <stop lane="344209391#4_0" triggered="person" />
  </trip>
  <trip id="taxi_193" depart="0.00" type="electric_eco" personCapacity="4">
    <stop lane="-437535048#3_0" triggered="person" />
  </trip>
  <trip id="taxi_194" depart="0.00" type="electric_eco" personCapacity="4">
    <stop lane="290080810#0_0" triggered="person" />
  </trip>
  <trip id="taxi_195" depart="0.00" type="electric_eco" personCapacity="4">
    <stop lane="-255178153#2_0" triggered="person" />
  </trip>
  <trip id="taxi_196" depart="0.00" type="electric_eco" personCapacity="4">
    <stop lane="437556516#4_0" triggered="person" />
  </trip>
  <trip id="taxi_197" depart="0.00" type="electric_eco" personCapacity="4">
    <stop lane="527829989#0_0" triggered="person" />
  </trip>
  <trip id="taxi_198" depart="0.00" type="electric_eco" personCapacity="4">
    <stop lane="27397934#0_0" triggered="person" />
  </trip>
  <trip id="taxi_199" depart="0.00" type="electric_eco" personCapacity="4">
    <stop lane="28596015#0_0" triggered="person" />
  </trip>
  <trip id="taxi_200" depart="0.00" type="electric_eco" personCapacity="4">
    <stop lane="133856224_0" triggered="person" />
  </trip>
  <trip id="taxi_201" depart="0.00" type="electric_eco" personCapacity="4">
    <stop lane="-414894752#0_0" triggered="person" />
  </trip>
  <trip id="taxi_202" depart="0.00" type="electric_eco" personCapacity="4">
    <stop lane="255330057#0_0" triggered="person" />
  </trip>
  <trip id="taxi_203" depart="0.00" type="electric_eco" personCapacity="4">
    <stop lane="-425516655#0_0" triggered="person" />
  </trip>
  <trip id="taxi_204" depart="0.00" type="electric_eco" personCapacity="4">
    <stop lane="-8916199#0_0" triggered="person" />
  </trip>
  <trip id="taxi_205" depart="0.00" type="electric_eco" personCapacity="4">
    <stop lane="-225808826#5_0" triggered="person" />
  </trip>
  <trip id="taxi_206" depart="0.00" type="electric_eco" personCapacity="4">
    <stop lane="254968954#0_0" triggered="person" />
  </trip>
  <trip id="taxi_207" depart="0.00" type="electric_eco" personCapacity="4">
    <stop lane="-101153945#3_0" triggered="person" />
  </trip>
  <trip id="taxi_208" depart="0.00" type="electric_eco" personCapacity="4">
    <stop lane="-681496206_0" triggered="person" />
  </trip>
  <trip id="taxi_209" depart="0.00" type="electric_eco" personCapacity="4">
    <stop lane="8921040#0_0" triggered="person" />
  </trip>
  <trip id="taxi_210" depart="0.00" type="electric_eco" personCapacity="4">
    <stop lane="133743910_0" triggered="person" />
  </trip>
  <trip id="taxi_211" depart="0.00" type="electric_eco" personCapacity="4">
    <stop lane="-278713837#7_0" triggered="person" />
  </trip>
  <trip id="taxi_212" depart="0.00" type="electric_eco" personCapacity="4">
    <stop lane="-437536521#6_0" triggered="person" />
  </trip>