<?xml version='1.0' encoding='utf-8'?>
<routes>
  <vType id="electric_eco" vClass="taxi" color="0,1,0" emissionClass="Energy">
    <param key="has.taxi.device" value="true" />
  </vType>
  <vType id="diesel_normal" vClass="taxi" color="1,0,0" emissionClass="HBEFA3/PC_D_EU4">
    <param key="has.taxi.device" value="true" />
  </vType>
  <vType id="gas_modern" vClass="taxi" color="0,0,1" emissionClass="HBEFA3/PC_G_EU6">
    <param key="has.taxi.device" value="true" />
  </vType>
  <vType id="zero_emis" vClass="taxi" color="0.5,0.5,0" emissionClass="Zero">
    <param key="has.taxi.device" value="true" />
  </vType>
  <trip id="taxi_0" depart="0.00" type="electric_eco" personCapacity="4">
    <stop lane="8918851#9_0" triggered="person" />
  </trip>
  <trip id="taxi_1" depart="0.00" type="electric_eco" personCapacity="4">
    <stop lane="8919774#0_0" triggered="person" />
  </trip>
  <trip id="taxi_2" depart="0.00" type="electric_eco" personCapacity="4">
    <stop lane="-158804462#1_0" triggered="person" />
  </trip>
  <trip id="taxi_3" depart="0.00" type="electric_eco" personCapacity="4">
    <stop lane="224316522#0_0" triggered="person" />
  </trip>
  <trip id="taxi_4" depart="0.00" type="electric_eco" personCapacity="4">
    <stop lane="-8920746#3_0" triggered="person" />
  </trip>
  <trip id="taxi_5" depart="0.00" type="electric_eco" personCapacity="4">
    <stop lane="437436468#1_0" triggered="person" />
  </trip>
  <trip id="taxi_6" depart="0.00" type="electric_eco" personCapacity="4">
    <stop lane="-412585900#0_0" triggered="person" />
  </trip>
  <trip id="taxi_7" depart="0.00" type="electric_eco" personCapacity="4">
    <stop lane="48211062#0_0" triggered="person" />
  </trip>
  <trip id="taxi_8" depart="0.00" type="electric_eco" personCapacity="4">
    <stop lane="-415254521_0" triggered="person" />
  </trip>
  <trip id="taxi_9" depart="0.00" type="electric_eco" personCapacity="4">
    <stop lane="-27615301_0" triggered="person" />
  </trip>
  <trip id="taxi_10" depart="0.00" type="electric_eco" personCapacity="4">
    <stop lane="24335480#6_0" triggered="person" />
  </trip>
  <trip id="taxi_11" depart="0.00" type="electric_eco" personCapacity="4">
    <stop lane="-286330683#0_0" triggered="person" />
  </trip>
  <trip id="taxi_12" depart="0.00" type="electric_eco" personCapacity="4">
    <stop lane="8918512#6_0" triggered="person" />
  </trip>
  <trip id="taxi_13" depart="0.00" type="electric_eco" personCapacity="4">
    <stop lane="417385463_0" triggered="person" />
  </trip>
  <trip id="taxi_14" depart="0.00" type="electric_eco" personCapacity="4">
    <stop lane="-425624293_0" triggered="person" />
  </trip>
  <trip id="taxi_15" depart="0.00" type="electric_eco" personCapacity="4">
    <stop lane="-1208185544_0" triggered="person" />
  </trip>
  <trip id="taxi_16" depart="0.00" type="electric_eco" personCapacity="4">
    <stop lane="27397919_0" triggered="person" />
  </trip>
  <trip id="taxi_17" depart="0.00" type="electric_eco" personCapacity="4">
    <stop lane="-760576902_0" triggered="person" />
  </trip>
  <trip id="taxi_18" depart="0.00" type="electric_eco" personCapacity="4">
    <stop lane="254297759#0_0" triggered="person" />
  </trip>
  <trip id="taxi_19" depart="0.00" type="electric_eco" personCapacity="4">
    <stop lane="133856296_0" triggered="person" />
  </trip>
  <trip id="taxi_20" depart="0.00" type="electric_eco" personCapacity="4">
    <stop lane="8917499_0" triggered="person" />
  </trip>
  <trip id="taxi_21" depart="0.00" type="electric_eco" personCapacity="4">
    <stop lane="-398464711#0_0" triggered="person" />
  </trip>
  <trip id="taxi_22" depart="0.00" type="electric_eco" personCapacity="4">
    <stop lane="254971055#0_0" triggered="person" />
  </trip>
  <trip id="taxi_23" depart="0.00" type="electric_eco" personCapacity="4">
    <stop lane="8919188_0" triggered="person" />
  </trip>
  <trip id="taxi_24" depart="0.00" type="electric_eco" personCapacity="4">
    <stop lane="-202317711#2_0" triggered="person" />
  </trip>
  <trip id="taxi_25" depart="0.00" type="electric_eco" personCapacity="4">
    <stop lane="-88396406#2_0" triggered="person" />
  </trip>
  <trip id="taxi_26" depart="0.00" type="electric_eco" personCapacity="4">
    <stop lane="-8917017#0_0" triggered="person" />
  </trip>
  <trip id="taxi_27" depart="0.00" type="electric_eco" personCapacity="4">
    <stop lane="-29480944_0" triggered="person" />
  </trip>
  <trip id="taxi_28" depart="0.00" type="electric_eco" personCapacity="4">
    <stop lane="-467991737_0" triggered="person" />
  </trip>
  <trip id="taxi_29" depart="0.00" type="electric_eco" personCapacity="4">
    <stop lane="-224200972#5_0" triggered="person" />
  </trip>
  <trip id="taxi_30" depart="0.00" type="electric_eco" personCapacity="4">
    <stop lane="513977501#0_0" triggered="person" />
  </trip>
  <trip id="taxi_31" depart="0.00" type="electric_eco" personCapacity="4">
    <stop lane="158468972#0_0" triggered="person" />
  </trip>
  <trip id="taxi_32" depart="0.00" type="electric_eco" personCapacity="4">
    <stop lane="8921294#2_0" triggered="person" />
  </trip>
  <trip id="taxi_33" depart="0.00" type="electric_eco" personCapacity="4">
    <stop lane="204884387#0_0" triggered="person" />
  </trip>
  <trip id="taxi_34" depart="0.00" type="electric_eco" personCapacity="4">
    <stop lane="529891472_0" triggered="person" />
  </trip>
  <trip id="taxi_35" depart="0.00" type="electric_eco" personCapacity="4">
    <stop lane="425516646_0" triggered="person" />
  </trip>
  <trip id="taxi_36" depart="0.00" type="electric_eco" personCapacity="4">
    <stop lane="8922024#0_0" triggered="person" />
  </trip>
  <trip id="taxi_37" depart="0.00" type="electric_eco" personCapacity="4">
    <stop lane="1034015984#2_0" triggered="person" />
  </trip>
  <trip id="taxi_38" depart="0.00" type="electric_eco" personCapacity="4">
    <stop lane="8917248#1_0" triggered="person" />
  </trip>
  <trip id="taxi_39" depart="0.00" type="electric_eco" personCapacity="4">
    <stop lane="27029265#0_0" triggered="person" />
  </trip>
  <trip id="taxi_40" depart="0.00" type="electric_eco" personCapacity="4">
    <stop lane="-255178063#6_0" triggered="person" />
  </trip>
  <trip id="taxi_41" depart="0.00" type="electric_eco" personCapacity="4">
    <stop lane="37572986_0" triggered="person" />
  </trip>
  <trip id="taxi_42" depart="0.00" type="electric_eco" personCapacity="4">
    <stop lane="397138962_0" triggered="person" />
  </trip>
  <trip id="taxi_43" depart="0.00" type="electric_eco" personCapacity="4">
    <stop lane="286356674#0_0" triggered="person" />
  </trip>
  <trip id="taxi_44" depart="0.00" type="electric_eco" personCapacity="4">
    <stop lane="238910401_0" triggered="person" />
  </trip>
  <trip id="taxi_45" depart="0.00" type="electric_eco" personCapacity="4">
    <stop lane="-449208907#2_0" triggered="person" />
  </trip>
  <trip id="taxi_46" depart="0.00" type="electric_eco" personCapacity="4">
    <stop lane="44671300#0_0" triggered="person" />
  </trip>
  <trip id="taxi_47" depart="0.00" type="electric_eco" personCapacity="4">
    <stop lane="425516635#0_0" triggered="person" />
  </trip>
  <trip id="taxi_48" depart="0.00" type="electric_eco" personCapacity="4">
    <stop lane="278713837#2_0" triggered="person" />
  </trip>
  <trip id="taxi_49" depart="0.00" type="electric_eco" personCapacity="4">
    <stop lane="-8920461#1_0" triggered="person" />
  </trip>
  <trip id="taxi_50" depart="0.00" type="electric_eco" personCapacity="4">
    <stop lane="-254759909#2_0" triggered="person" />
  </trip>
  <trip id="taxi_51" depart="0.00" type="electric_eco" personCapacity="4">
    <stop lane="-224200963#1_0" triggered="person" />
  </trip>
  <trip id="taxi_52" depart="0.00" type="electric_eco" personCapacity="4">
    <stop lane="219545675#6_0" triggered="person" />
  </trip>
  <trip id="taxi_53" depart="0.00" type="electric_eco" personCapacity="4">
    <stop lane="-247966218#2_0" triggered="person" />
  </trip>
  <trip id="taxi_54" depart="0.00" type="electric_eco" personCapacity="4">
    <stop lane="255178165_0" triggered="person" />
  </trip>
  <trip id="taxi_55" depart="0.00" type="electric_eco" personCapacity="4">
    <stop lane="397108536#0_0" triggered="person" />
  </trip>
  <trip id="taxi_56" depart="0.00" type="electric_eco" personCapacity="4">
    <stop lane="-465209329#5_0" triggered="person" />
  </trip>
  <trip id="taxi_57" depart="0.00" type="electric_eco" personCapacity="4">
    <stop lane="88463827#0_0" triggered="person" />
  </trip>
  <trip id="taxi_58" depart="0.00" type="electric_eco" personCapacity="4">
    <stop lane="-52721875#14_0" triggered="person" />
  </trip>
  <trip id="taxi_59" depart="0.00" type="electric_eco" personCapacity="4">
    <stop lane="-398123035#0_0" triggered="person" />
  </trip>
  <trip id="taxi_60" depart="0.00" type="electric_eco" personCapacity="4">
    <stop lane="147496077#3_0" triggered="person" />
  </trip>
  <trip id="taxi_61" depart="0.00" type="electric_eco" personCapacity="4">
    <stop lane="-417106101#1_0" triggered="person" />
  </trip>
  <trip id="taxi_62" depart="0.00" type="electric_eco" personCapacity="4">
    <stop lane="-84733302#2_0" triggered="person" />
  </trip>
  <trip id="taxi_63" depart="0.00" type="electric_eco" personCapacity="4">
    <stop lane="112470382#1_0" triggered="person" />
  </trip>
  <trip id="taxi_64" depart="0.00" type="electric_eco" personCapacity="4">
    <stop lane="43100743#0_0" triggered="person" />
  </trip>
  <trip id="taxi_65" depart="0.00" type="electric_eco" personCapacity="4">
    <stop lane="679788130_0" triggered="person" />
  </trip>
  <trip id="taxi_66" depart="0.00" type="electric_eco" personCapacity="4">
    <stop lane="-8916216#0_0" triggered="person" />
  </trip>
  <trip id="taxi_67" depart="0.00" type="electric_eco" personCapacity="4">
    <stop lane="147496081#4_0" triggered="person" />
  </trip>
  <trip id="taxi_68" depart="0.00" type="electric_eco" personCapacity="4">
    <stop lane="8916375#0_0" triggered="person" />
  </trip>
  <trip id="taxi_69" depart="0.00" type="electric_eco" personCapacity="4">
    <stop lane="-8917303#2_0" triggered="person" />
  </trip>
  <trip id="taxi_70" depart="0.00" type="electric_eco" personCapacity="4">
    <stop lane="-8917593#2_0" triggered="person" />
  </trip>
  <trip id="taxi_71" depart="0.00" type="electric_eco" personCapacity="4">
    <stop lane="-28843496_0" triggered="person" />
  </trip>
  <trip id="taxi_72" depart="0.00" type="electric_eco" personCapacity="4">
    <stop lane="8917657#1_0" triggered="person" />
  </trip>
  <trip id="taxi_73" depart="0.00" type="electric_eco" personCapacity="4">
    <stop lane="425516678#2_0" triggered="person" />
  </trip>
  <trip id="taxi_74" depart="0.00" type="electric_eco" personCapacity="4">
    <stop lane="437557845#11_0" triggered="person" />
  </trip>
  <trip id="taxi_75" depart="0.00" type="electric_eco" personCapacity="4">
    <stop lane="437413082_0" triggered="person" />
  </trip>
  <trip id="taxi_76" depart="0.00" type="electric_eco" personCapacity="4">
    <stop lane="-711636459#3_0" triggered="person" />
  </trip>
  <trip id="taxi_77" depart="0.00" type="electric_eco" personCapacity="4">
    <stop lane="-158804477_0" triggered="person" />
  </trip>
  <trip id="taxi_78" depart="0.00" type="electric_eco" personCapacity="4">
    <stop lane="-721174652_0" triggered="person" />
  </trip>
  <trip id="taxi_79" depart="0.00" type="electric_eco" personCapacity="4">
    <stop lane="-159156712#4_0" triggered="person" />
  </trip>
  <trip id="taxi_80" depart="0.00" type="electric_eco" personCapacity="4">
    <stop lane="-468000213_0" triggered="person" />
  </trip>
  <trip id="taxi_81" depart="0.00" type="electric_eco" personCapacity="4">
    <stop lane="-8916853#2_0" triggered="person" />
  </trip>
  <trip id="taxi_82" depart="0.00" type="electric_eco" personCapacity="4">
    <stop lane="-437533751#0_0" triggered="person" />
  </trip>
  <trip id="taxi_83" depart="0.00" type="electric_eco" personCapacity="4">
    <stop lane="-398129728#0_0" triggered="person" />
  </trip>
  <trip id="taxi_84" depart="0.00" type="electric_eco" personCapacity="4">
    <stop lane="-8921262_0" triggered="person" />
  </trip>
  <trip id="taxi_85" depart="0.00" type="electric_eco" personCapacity="4">
    <stop lane="29023785#0_0" triggered="person" />
  </trip>
  <trip id="taxi_86" depart="0.00" type="electric_eco" personCapacity="4">
    <stop lane="-425516655#2_0" triggered="person" />
  </trip>
  <trip id="taxi_87" depart="0.00" type="electric_eco" personCapacity="4">
    <stop lane="255170258#1_0" triggered="person" />
  </trip>
  <trip id="taxi_88" depart="0.00" type="electric_eco" personCapacity="4">
    <stop lane="106046472#0_0" triggered="person" />
  </trip>
  <trip id="taxi_89" depart="0.00" type="electric_eco" personCapacity="4">
    <stop lane="-8921562#2_0" triggered="person" />
  </trip>
  <trip id="taxi_90" depart="0.00" type="electric_eco" personCapacity="4">
    <stop lane="8917827_0" triggered="person" />
  </trip>
  <trip id="taxi_91" depart="0.00" type="electric_eco" personCapacity="4">
    <stop lane="-8919312_0" triggered="person" />
  </trip>
  <trip id="taxi_92" depart="0.00" type="electric_eco" personCapacity="4">
    <stop lane="147496074#4_0" triggered="person" />
  </trip>
  <trip id="taxi_93" depart="0.00" type="electric_eco" personCapacity="4">
    <stop lane="-1208130546#0_0" triggered="person" />
  </trip>
  <trip id="taxi_94" depart="0.00" type="electric_eco" personCapacity="4">
    <stop lane="591571294_0" triggered="person" />
  </trip>
  <trip id="taxi_95" depart="0.00" type="electric_eco" personCapacity="4">
    <stop lane="60430757#0_0" triggered="person" />
  </trip>
  <trip id="taxi_96" depart="0.00" type="electric_eco" personCapacity="4">
    <stop lane="890256197_0" triggered="person" />
  </trip>
  <trip id="taxi_97" depart="0.00" type="electric_eco" personCapacity="4">
    <stop lane="-23969673#3_0" triggered="person" />
  </trip>
  <trip id="taxi_98" depart="0.00" type="electric_eco" personCapacity="4">
    <stop lane="8918983_0" triggered="person" />
  </trip>
  <trip id="taxi_99" depart="0.00" type="electric_eco" personCapacity="4">
    <stop lane="8921136#0_0" triggered="person" />
  </trip>
  <trip id="taxi_100" depart="0.00" type="electric_eco" personCapacity="4">
    <stop lane="398129725#1_0" triggered="person" />
  </trip>
  <trip id="taxi_101" depart="0.00" type="electric_eco" personCapacity="4">
    <stop lane="225432465_0" triggered="person" />
  </trip>
  <trip id="taxi_102" depart="0.00" type="electric_eco" personCapacity="4">
    <stop lane="-255170247_0" triggered="person" />
  </trip>
  <trip id="taxi_103" depart="0.00" type="electric_eco" personCapacity="4">
    <stop lane="-397724694_0" triggered="person" />
  </trip>
  <trip id="taxi_104" depart="0.00" type="electric_eco" personCapacity="4">
    <stop lane="-425516658_0" triggered="person" />
  </trip>
  <trip id="taxi_105" depart="0.00" type="electric_eco" personCapacity="4">
    <stop lane="-427283771_0" triggered="person" />
  </trip>
  <trip id="taxi_106" depart="0.00" type="electric_eco" personCapacity="4">
    <stop lane="-8916532#1_0" triggered="person" />
  </trip>
  <trip id="taxi_107" depart="0.00" type="electric_eco" personCapacity="4">
    <stop lane="25821946#4_0" triggered="person" />
  </trip>
  <trip id="taxi_108" depart="0.00" type="electric_eco" personCapacity="4">
    <stop lane="281967799_0" triggered="person" />
  </trip>
  <trip id="taxi_109" depart="0.00" type="electric_eco" personCapacity="4">
    <stop lane="1126161508#0_0" triggered="person" />
  </trip>
  <trip id="taxi_110" depart="0.00" type="electric_eco" personCapacity="4">
    <stop lane="26929845#4_0" triggered="person" />
  </trip>
  <trip id="taxi_111" depart="0.00" type="electric_eco" personCapacity="4">
    <stop lane="254758120#3_0" triggered="person" />
  </trip>
  <trip id="taxi_112" depart="0.00" type="electric_eco" personCapacity="4">
    <stop lane="134255657_0" triggered="person" />
  </trip>
  <trip id="taxi_113" depart="0.00" type="electric_eco" personCapacity="4">
    <stop lane="1193439994#6_0" triggered="person" />
  </trip>
  <trip id="taxi_114" depart="0.00" type="electric_eco" personCapacity="4">
    <stop lane="27166444#0_0" triggered="person" />
  </trip>
  <trip id="taxi_115" depart="0.00" type="electric_eco" personCapacity="4">
    <stop lane="-147496079#4_0" triggered="person" />
  </trip>
  <trip id="taxi_116" depart="0.00" type="electric_eco" personCapacity="4">
    <stop lane="8917113#0_0" triggered="person" />
  </trip>
  <trip id="taxi_117" depart="0.00" type="electric_eco" personCapacity="4">
    <stop lane="415300576#1_0" triggered="person" />
  </trip>
  <trip id="taxi_118" depart="0.00" type="electric_eco" personCapacity="4">
    <stop lane="-8920846#6_0" triggered="person" />
  </trip>
  <trip id="taxi_119" depart="0.00" type="electric_eco" personCapacity="4">
    <stop lane="133748407#0_0" triggered="person" />
  </trip>
  <trip id="taxi_120" depart="0.00" type="electric_eco" personCapacity="4">
    <stop lane="110800712#2_0" triggered="person" />
  </trip>
  <trip id="taxi_121" depart="0.00" type="electric_eco" personCapacity="4">
    <stop lane="513701211#0_0" triggered="person" />
  </trip>
  <trip id="taxi_122" depart="0.00" type="electric_eco" personCapacity="4">
    <stop lane="8916908#1_0" triggered="person" />
  </trip>
  <trip id="taxi_123" depart="0.00" type="electric_eco" personCapacity="4">
    <stop lane="8919412#0_0" triggered="person" />
  </trip>
  <trip id="taxi_124" depart="0.00" type="electric_eco" personCapacity="4">
    <stop lane="85562607_0" triggered="person" />
  </trip>
  <trip id="taxi_125" depart="0.00" type="electric_eco" personCapacity="4">
    <stop lane="-397148934#1_0" triggered="person" />
  </trip>
  <trip id="taxi_126" depart="0.00" type="electric_eco" personCapacity="4">
    <stop lane="147496080#2_0" triggered="person" />
  </trip>
  <trip id="taxi_127" depart="0.00" type="electric_eco" personCapacity="4">
    <stop lane="88597563#0_0" triggered="person" />
  </trip>
  <trip id="taxi_128" depart="0.00" type="electric_eco" personCapacity="4">
    <stop lane="47161085_0" triggered="person" />
  </trip>
  <trip id="taxi_129" depart="0.00" type="electric_eco" personCapacity="4">
    <stop lane="-437541662#7_0" triggered="person" />
  </trip>
  <trip id="taxi_130" depart="0.00" type="electric_eco" personCapacity="4">
    <stop lane="-706548258#1_0" triggered="person" />
  </trip>
  <trip id="taxi_131" depart="0.00" type="electric_eco" personCapacity="4">
    <stop lane="43100743#1_0" triggered="person" />
  </trip>
  <trip id="taxi_132" depart="0.00" type="electric_eco" personCapacity="4">
    <stop lane="-8918633_0" triggered="person" />
  </trip>
  <trip id="taxi_133" depart="0.00" type="electric_eco" personCapacity="4">
    <stop lane="1183973803_0" triggered="person" />
  </trip>
  <trip id="taxi_134" depart="0.00" type="electric_eco" personCapacity="4">
    <stop lane="254308548#0_0" triggered="person" />
  </trip>
  <trip id="taxi_135" depart="0.00" type="electric_eco" personCapacity="4">
    <stop lane="8917659#0_0" triggered="person" />
  </trip>
  <trip id="taxi_136" depart="0.00" type="electric_eco" personCapacity="4">
    <stop lane="8919133_0" triggered="person" />
  </trip>
  <trip id="taxi_137" depart="0.00" type="electric_eco" personCapacity="4">
    <stop lane="47183715#0_0" triggered="person" />
  </trip>
  <trip id="taxi_138" depart="0.00" type="electric_eco" personCapacity="4">
    <stop lane="-155373682#5_0" triggered="person" />
  </trip>
  <trip id="taxi_139" depart="0.00" type="electric_eco" personCapacity="4">
    <stop lane="254756517#0_0" triggered="person" />
  </trip>
  <trip id="taxi_140" depart="0.00" type="electric_eco" personCapacity="4">
    <stop lane="254396709#0_0" triggered="person" />
  </trip>
  <trip id="taxi_141" depart="0.00" type="electric_eco" personCapacity="4">
    <stop lane="-437536521#7_0" triggered="person" />
  </trip>
  <trip id="taxi_142" depart="0.00" type="electric_eco" personCapacity="4">
    <stop lane="23883364_0" triggered="person" />
  </trip>
  <trip id="taxi_143" depart="0.00" type="electric_eco" personCapacity="4">
    <stop lane="8918765#6_0" triggered="person" />
  </trip>
  <trip id="taxi_144" depart="0.00" type="electric_eco" personCapacity="4">
    <stop lane="8915865_0" triggered="person" />
  </trip>
  <trip id="taxi_145" depart="0.00" type="electric_eco" personCapacity="4">
    <stop lane="28575128#1_0" triggered="person" />
  </trip>
  <trip id="taxi_146" depart="0.00" type="electric_eco" personCapacity="4">
    <stop lane="398123032#1_0" triggered="person" />
  </trip>
  <trip id="taxi_147" depart="0.00" type="electric_eco" personCapacity="4">
    <stop lane="8916787#1_0" triggered="person" />
  </trip>
  <trip id="taxi_148" depart="0.00" type="electric_eco" personCapacity="4">
    <stop lane="8920281#0_0" triggered="person" />
  </trip>
  <trip id="taxi_149" depart="0.00" type="electric_eco" personCapacity="4">
    <stop lane="-513937857_0" triggered="person" />
  </trip>
  <trip id="taxi_150" depart="0.00" type="electric_eco" personCapacity="4">
    <stop lane="101153941#0_0" triggered="person" />
  </trip>
  <trip id="taxi_151" depart="0.00" type="electric_eco" personCapacity="4">
    <stop lane="772972816_0" triggered="person" />
  </trip>
  <trip id="taxi_152" depart="0.00" type="electric_eco" personCapacity="4">
    <stop lane="684024428_0" triggered="person" />
  </trip>
  <trip id="taxi_153" depart="0.00" type="electric_eco" personCapacity="4">
    <stop lane="-399215885#3_0" triggered="person" />
  </trip>
  <trip id="taxi_154" depart="0.00" type="electric_eco" personCapacity="4">
    <stop lane="8920219_0" triggered="person" />
  </trip>
  <trip id="taxi_155" depart="0.00" type="electric_eco" personCapacity="4">
    <stop lane="451369866_0" triggered="person" />
  </trip>
  <trip id="taxi_156" depart="0.00" type="electric_eco" personCapacity="4">
    <stop lane="-711636459#6_0" triggered="person" />
  </trip>
  <trip id="taxi_157" depart="0.00" type="electric_eco" personCapacity="4">
    <stop lane="-8918982_0" triggered="person" />
  </trip>
  <trip id="taxi_158" depart="0.00" type="electric_eco" personCapacity="4">
    <stop lane="-24603671#1_0" triggered="person" />
  </trip>
  <trip id="taxi_159" depart="0.00" type="electric_eco" personCapacity="4">
    <stop lane="-32006596_0" triggered="person" />
  </trip>
  <trip id="taxi_160" depart="0.00" type="electric_eco" personCapacity="4">
    <stop lane="-255178064#0_0" triggered="person" />
  </trip>
  <trip id="taxi_161" depart="0.00" type="electric_eco" personCapacity="4">
    <stop lane="-133748358_0" triggered="person" />
  </trip>
  <trip id="taxi_162" depart="0.00" type="electric_eco" personCapacity="4">
    <stop lane="1092444832#0_0" triggered="person" />
  </trip>
  <trip id="taxi_163" depart="0.00" type="electric_eco" personCapacity="4">
    <stop lane="255178087#0_0" triggered="person" />
  </trip>
  <trip id="taxi_164" depart="0.00" type="electric_eco" personCapacity="4">
    <stop lane="437538522#2_0" triggered="person" />
  </trip>
  <trip id="taxi_165" depart="0.00" type="electric_eco" personCapacity="4">
    <stop lane="437413082_0" triggered="person" />
  </trip>
  <trip id="taxi_166" depart="0.00" type="electric_eco" personCapacity="4">
    <stop lane="148310040#0_0" triggered="person" />
  </trip>
  <trip id="taxi_167" depart="0.00" type="electric_eco" personCapacity="4">
    <stop lane="-255351734_0" triggered="person" />
  </trip>
  <trip id="taxi_168" depart="0.00" type="electric_eco" personCapacity="4">
    <stop lane="255178131#1_0" triggered="person" />
  </trip>
  <trip id="taxi_169" depart="0.00" type="electric_eco" personCapacity="4">
    <stop lane="1079877180#1_0" triggered="person" />
  </trip>
  <trip id="taxi_170" depart="0.00" type="electric_eco" personCapacity="4">
    <stop lane="619568429_0" triggered="person" />
  </trip>
  <trip id="taxi_171" depart="0.00" type="electric_eco" personCapacity="4">
    <stop lane="1064350475_0" triggered="person" />
  </trip>
  <trip id="taxi_172" depart="0.00" type="electric_eco" personCapacity="4">
    <stop lane="224316521#0_0" triggered="person" />
  </trip>
  <trip id="taxi_173" depart="0.00" type="electric_eco" personCapacity="4">
    <stop lane="32949491#3_0" triggered="person" />
  </trip>
  <trip id="taxi_174" depart="0.00" type="electric_eco" personCapacity="4">
    <stop lane="769489484#2_0" triggered="person" />
  </trip>
  <trip id="taxi_175" depart="0.00" type="electric_eco" personCapacity="4">
    <stop lane="-8919709#4_0" triggered="person" />
  </trip>
  <trip id="taxi_176" depart="0.00" type="electric_eco" personCapacity="4">
    <stop lane="24604614#1_0" triggered="person" />
  </trip>
  <trip id="taxi_177" depart="0.00" type="electric_eco" personCapacity="4">
    <stop lane="-215848125_0" triggered="person" />
  </trip>
  <trip id="taxi_178" depart="0.00" type="electric_eco" personCapacity="4">
    <stop lane="-1168069941#6_0" triggered="person" />
  </trip>
  <trip id="taxi_179" depart="0.00" type="electric_eco" personCapacity="4">
    <stop lane="120256351#0_0" triggered="person" />
  </trip>
  <trip id="taxi_180" depart="0.00" type="electric_eco" personCapacity="4">
    <stop lane="255178067#3_0" triggered="person" />
  </trip>
  <trip id="taxi_181" depart="0.00" type="electric_eco" personCapacity="4">
    <stop lane="88597575#0_0" triggered="person" />
  </trip>
  <trip id="taxi_182" depart="0.00" type="electric_eco" personCapacity="4">
    <stop lane="255330072#0_0" triggered="person" />
  </trip>
  <trip id="taxi_183" depart="0.00" type="electric_eco" personCapacity="4">
    <stop lane="-8915747#0_0" triggered="person" />
  </trip>
  <trip id="taxi_184" depart="0.00" type="electric_eco" personCapacity="4">
    <stop lane="8920585#1_0" triggered="person" />
  </trip>
  <trip id="taxi_185" depart="0.00" type="electric_eco" personCapacity="4">
    <stop lane="288065246#0_0" triggered="person" />
  </trip>
  <trip id="taxi_186" depart="0.00" type="electric_eco" personCapacity="4">
    <stop lane="255330047#0_0" triggered="person" />
  </trip>
  <trip id="taxi_187" depart="0.00" type="electric_eco" personCapacity="4">
    <stop lane="-286668073#1_0" triggered="person" />
  </trip>
  <trip id="taxi_188" depart="0.00" type="electric_eco" personCapacity="4">
    <stop lane="461017935_0" triggered="person" />
  </trip>
  <trip id="taxi_189" depart="0.00" type="electric_eco" personCapacity="4">
    <stop lane="-1122268837#3_0" triggered="person" />
  </trip>
  <trip id="taxi_190" depart="0.00" type="electric_eco" personCapacity="4">
    <stop lane="8918821#0_0" triggered="person" />
  </trip>
  <trip id="taxi_191" depart="0.00" type="electric_eco" personCapacity="4">
    <stop lane="254984069#0_0" triggered="person" />
  </trip>
  <trip id="taxi_192" depart="0.00" type="electric_eco" personCapacity="4">
    <stop lane="148846999#1_0" triggered="person" />
  </trip>
  <trip id="taxi_193" depart="0.00" type="electric_eco" personCapacity="4">
    <stop lane="133376107_0" triggered="person" />
  </trip>
  <trip id="taxi_194" depart="0.00" type="electric_eco" personCapacity="4">
    <stop lane="147490427#0_0" triggered="person" />
  </trip>
  <trip id="taxi_195" depart="0.00" type="electric_eco" personCapacity="4">
    <stop lane="8922697_0" triggered="person" />
  </trip>
  <trip id="taxi_196" depart="0.00" type="electric_eco" personCapacity="4">
    <stop lane="-681500370_0" triggered="person" />
  </trip>
  <trip id="taxi_197" depart="0.00" type="electric_eco" personCapacity="4">
    <stop lane="-8917520#2_0" triggered="person" />
  </trip>
  <trip id="taxi_198" depart="0.00" type="electric_eco" personCapacity="4">
    <stop lane="8918039#0_0" triggered="person" />
  </trip>
  <trip id="taxi_199" depart="0.00" type="electric_eco" personCapacity="4">
    <stop lane="24335490#0_0" triggered="person" />
  </trip>
  <trip id="taxi_200" depart="0.00" type="electric_eco" personCapacity="4">
    <stop lane="-224199010#5_0" triggered="person" />
  </trip>
  <trip id="taxi_201" depart="0.00" type="electric_eco" personCapacity="4">
    <stop lane="8915974#1_0" triggered="person" />
  </trip>
  <trip id="taxi_202" depart="0.00" type="electric_eco" personCapacity="4">
    <stop lane="502825982#0_0" triggered="person" />
  </trip>
  <trip id="taxi_203" depart="0.00" type="electric_eco" personCapacity="4">
    <stop lane="8916826#1_0" triggered="person" />
  </trip>
  <trip id="taxi_204" depart="0.00" type="electric_eco" personCapacity="4">
    <stop lane="-88572914#1_0" triggered="person" />
  </trip>
  <trip id="taxi_205" depart="0.00" type="electric_eco" personCapacity="4">
    <stop lane="8917958#1_0" triggered="person" />
  </trip>
  <trip id="taxi_206" depart="0.00" type="electric_eco" personCapacity="4">
    <stop lane="123660741_0" triggered="person" />
  </trip>
  <trip id="taxi_207" depart="0.00" type="electric_eco" personCapacity="4">
    <stop lane="27028368#2_0" triggered="person" />
  </trip>
  <trip id="taxi_208" depart="0.00" type="electric_eco" personCapacity="4">
    <stop lane="-254759930#2_0" triggered="person" />
  </trip>
  <trip id="taxi_209" depart="0.00" type="electric_eco" personCapacity="4">
    <stop lane="619027325_0" triggered="person" />
  </trip>
  <trip id="taxi_210" depart="0.00" type="electric_eco" personCapacity="4">
    <stop lane="254759915#1_0" triggered="person" />
  </trip>
  <trip id="taxi_211" depart="0.00" type="electric_eco" personCapacity="4">
    <stop lane="397166908#0_0" triggered="person" />
  </trip>
  <trip id="taxi_212" depart="0.00" type="electric_eco" personCapacity="4">
    <stop lane="28572351_0" triggered="person" />
  </trip>