<?xml version='1.0' encoding='utf-8'?>
<routes>
  <person id="p_852" depart="1.00">
    <ride from="8918808#1" to="769783926" lines="taxi" />
  </person>
  <person id="p_584" depart="2.00">
    <ride from="-970790448#4" to="-682475681#1" lines="taxi" />
  </person>
  <person id="p_2662" depart="3.00">
    <ride from="-30757765" to="-397104884#1" lines="taxi" />
  </person>
  <person id="p_6231" depart="3.00">
    <ride from="256400244#0" to="27054213#0" lines="taxi" />
  </person>
  <person id="p_7231" depart="3.00">
    <ride from="513928557" to="417087306#0.43" lines="taxi" />
  </person>
  <person id="p_5276" depart="4.00">
    <ride from="406581245" to="-475457043" lines="taxi" />
  </person>
  <person id="p_1661" depart="6.00">
    <ride from="396962024" to="781810755" lines="taxi" />
  </person>
  <person id="p_6119" depart="6.00">
    <ride from="-467630604" to="406946350#0" lines="taxi" />
  </person>
  <person id="p_4454" depart="7.00">
    <ride from="468552082#0" to="8932911" lines="taxi" />
  </person>
  <person id="p_4556" depart="7.00">
    <ride from="-417392953" to="1105662565" lines="taxi" />
  </person>
  <person id="p_6455" depart="7.00">
    <ride from="-287958606#2" to="400907148" lines="taxi" />
  </person>
  <person id="p_179" depart="8.00">
    <ride from="-397120479" to="513705407" lines="taxi" />
  </person>
  <person id="p_3381" depart="9.00">
    <ride from="198565351" to="-228196396#1" lines="taxi" />
  </person>
  <person id="p_6248" depart="10.00">
    <ride from="99231463#0" to="513977502#0" lines="taxi" />
  </person>
  <person id="p_6297" depart="10.00">
    <ride from="620728120#0" to="8917437" lines="taxi" />
  </person>
  <person id="p_3483" depart="11.00">
    <ride from="26943461" to="99231463#0" lines="taxi" />
  </person>
  <person id="p_3877" depart="11.00">
    <ride from="543844602#0" to="254758126#0" lines="taxi" />
  </person>
  <person id="p_5248" depart="11.00">
    <ride from="397105094#0" to="-255351723#0" lines="taxi" />
  </person>
  <person id="p_2005" depart="12.00">
    <ride from="686246696#0" to="968937451#2" lines="taxi" />
  </person>
  <person id="p_2166" depart="12.00">
    <ride from="91182066#0" to="-228196396#1" lines="taxi" />
  </person>
  <person id="p_3715" depart="12.00">
    <ride from="845978827" to="425516656#0" lines="taxi" />
  </person>
  <person id="p_6492" depart="13.00">
    <ride from="1030276936#0" to="706532925#0" lines="taxi" />
  </person>
  <person id="p_6795" depart="13.00">
    <ride from="254971070#4" to="425516665" lines="taxi" />
  </person>
  <person id="p_300" depart="14.00">
    <ride from="-8917125#4" to="8916215" lines="taxi" />
  </person>
  <person id="p_440" depart="14.00">
    <ride from="286672835#1" to="88572948#0" lines="taxi" />
  </person>
  <person id="p_1264" depart="14.00">
    <ride from="-86331264#4" to="255330057#0" lines="taxi" />
  </person>
  <person id="p_4887" depart="14.00">
    <ride from="1111544263#0" to="8915244" lines="taxi" />
  </person>
  <person id="p_6187" depart="14.00">
    <ride from="425516617#3" to="-397148934#1" lines="taxi" />
  </person>
  <person id="p_6976" depart="14.00">
    <ride from="-397130970#1" to="417087306#0.43" lines="taxi" />
  </person>
  <person id="p_7361" depart="14.00">
    <ride from="8916455#7" to="-315825761#1" lines="taxi" />
  </person>
  <person id="p_84" depart="15.00">
    <ride from="-397107863" to="-86331230#6" lines="taxi" />
  </person>
  <person id="p_243" depart="15.00">
    <ride from="222858919#5" to="86303763#1" lines="taxi" />
  </person>
  <person id="p_4487" depart="15.00">
    <ride from="502795946#3" to="224200968#0" lines="taxi" />
  </person>
  <person id="p_5731" depart="16.00">
    <ride from="88572948#0" to="25758528#0" lines="taxi" />
  </person>
  <person id="p_1028" depart="17.00">
    <ride from="475457058" to="-397166908#1" lines="taxi" />
  </person>
  <person id="p_2219" depart="17.00">
    <ride from="-85644919#8" to="8917284#13" lines="taxi" />
  </person>
  <person id="p_5563" depart="17.00">
    <ride from="364480068#0" to="E19" lines="taxi" />
  </person>
  <person id="p_7142" depart="17.00">
    <ride from="8919519#0" to="27397919" lines="taxi" />
  </person>
  <person id="p_1939" depart="18.00">
    <ride from="527857404#0" to="620728089#0" lines="taxi" />
  </person>
  <person id="p_2979" depart="18.00">
    <ride from="-706555131#1" to="511666057" lines="taxi" />
  </person>
  <person id="p_3506" depart="18.00">
    <ride from="513963921#0" to="617268038#0" lines="taxi" />
  </person>
  <person id="p_3740" depart="18.00">
    <ride from="247966218#1" to="397152177#0" lines="taxi" />
  </person>
  <person id="p_2540" depart="19.00">
    <ride from="-706545920#0" to="706532925#0" lines="taxi" />
  </person>
  <person id="p_5034" depart="20.00">
    <ride from="736367665#0" to="1120512099#0" lines="taxi" />
  </person>
  <person id="p_5853" depart="20.00">
    <ride from="29023785#0" to="26929832#0" lines="taxi" />
  </person>
  <person id="p_6573" depart="21.00">
    <ride from="27054196#0" to="688508131" lines="taxi" />
  </person>
  <person id="p_533" depart="22.00">
    <ride from="-619568411#1" to="700653014#2" lines="taxi" />
  </person>
  <person id="p_1105" depart="22.00">
    <ride from="28596015#0" to="-544456547#2" lines="taxi" />
  </person>
  <person id="p_1539" depart="22.00">
    <ride from="686250329#0" to="406581245" lines="taxi" />
  </person>
  <person id="p_2233" depart="22.00">
    <ride from="-254759929" to="-263108751#2" lines="taxi" />
  </person>
  <person id="p_2808" depart="22.00">
    <ride from="225516691#1" to="255178059#0" lines="taxi" />
  </person>
  <person id="p_1115" depart="23.00">
    <ride from="28596015#0" to="-505667523" lines="taxi" />
  </person>
  <person id="p_6629" depart="23.00">
    <ride from="512984875#0" to="-772927006#2" lines="taxi" />
  </person>
  <person id="p_7559" depart="24.00">
    <ride from="-204884397#1" to="-8915796#2" lines="taxi" />
  </person>
  <person id="p_501" depart="25.00">
    <ride from="-254299729#5" to="-399215885#0" lines="taxi" />
  </person>
  <person id="p_1175" depart="25.00">
    <ride from="1170446824" to="8915244" lines="taxi" />
  </person>
  <person id="p_3078" depart="25.00">
    <ride from="1135619589#0" to="8921203" lines="taxi" />
  </person>
  <person id="p_4304" depart="25.00">
    <ride from="-674189179" to="1111450276" lines="taxi" />
  </person>
  <person id="p_3042" depart="26.00">
    <ride from="-224384013#2" to="-8920934" lines="taxi" />
  </person>
  <person id="p_3250" depart="26.00">
    <ride from="8920632" to="111552058#2" lines="taxi" />
  </person>
  <person id="p_856" depart="27.00">
    <ride from="1188700479#0" to="693633428#6" lines="taxi" />
  </person>
  <person id="p_4536" depart="27.00">
    <ride from="-8917416#0" to="396952203#0" lines="taxi" />
  </person>
  <person id="p_5618" depart="27.00">
    <ride from="968937451#2" to="85562503#0" lines="taxi" />
  </person>
  <person id="p_2008" depart="28.00">
    <ride from="686246696#0" to="934261704#1" lines="taxi" />
  </person>
  <person id="p_7612" depart="28.00">
    <ride from="144489134#0" to="850162149" lines="taxi" />
  </person>
  <person id="p_1374" depart="29.00">
    <ride from="112408725#0" to="87554970" lines="taxi" />
  </person>
  <person id="p_5592" depart="29.00">
    <ride from="968937451#2" to="533053745#2" lines="taxi" />
  </person>
  <person id="p_6430" depart="29.00">
    <ride from="397146707" to="417101719#0" lines="taxi" />
  </person>
  <person id="p_851" depart="30.00">
    <ride from="8918808#1" to="-145474275#0" lines="taxi" />
  </person>
  <person id="p_2257" depart="30.00">
    <ride from="87297166" to="416878321#3" lines="taxi" />
  </person>
  <person id="p_3502" depart="30.00">
    <ride from="-25821940" to="-254759930#2" lines="taxi" />
  </person>
  <person id="p_4063" depart="30.00">
    <ride from="417087280#0" to="-133856228#2" lines="taxi" />
  </person>
  <person id="p_4518" depart="30.00">
    <ride from="516940745" to="706532925#0" lines="taxi" />
  </person>
  <person id="p_7696" depart="30.00">
    <ride from="364480068#0" to="-225516714#4" lines="taxi" />
  </person>
  <person id="p_426" depart="31.00">
    <ride from="-391860317#2" to="1121644083#0" lines="taxi" />
  </person>
  <person id="p_3006" depart="31.00">
    <ride from="419657507#2" to="-228196396#1" lines="taxi" />
  </person>
  <person id="p_435" depart="33.00">
    <ride from="813986023#1" to="461084153#0" lines="taxi" />
  </person>
  <person id="p_6229" depart="33.00">
    <ride from="256400244#0" to="8919075" lines="taxi" />
  </person>
  <person id="p_3471" depart="34.00">
    <ride from="26943461" to="30030485#4" lines="taxi" />
  </person>
  <person id="p_2791" depart="35.00">
    <ride from="-8917125#3" to="-1020512097#1" lines="taxi" />
  </person>
  <person id="p_4243" depart="36.00">
    <ride from="1035911409#0" to="27145835#1" lines="taxi" />
  </person>
  <person id="p_5449" depart="37.00">
    <ride from="-43100047#0" to="1021035218" lines="taxi" />
  </person>
  <person id="p_7840" depart="37.00">
    <ride from="780006784#0" to="-228196396#1" lines="taxi" />
  </person>
  <person id="p_603" depart="38.00">
    <ride from="-286674338#1" to="417087280#0" lines="taxi" />
  </person>
  <person id="p_1127" depart="38.00">
    <ride from="-8918884#2" to="514675663" lines="taxi" />
  </person>
  <person id="p_2987" depart="39.00">
    <ride from="419657507#2" to="86303758#0" lines="taxi" />
  </person>
  <person id="p_5171" depart="39.00">
    <ride from="771410365#0" to="505747780" lines="taxi" />
  </person>
  <person id="p_7067" depart="39.00">
    <ride from="-85644937#1" to="91181769#2" lines="taxi" />
  </person>
  <person id="p_3586" depart="40.00">
    <ride from="-1112654292" to="-706533481#4" lines="taxi" />
  </person>
  <person id="p_5042" depart="40.00">
    <ride from="736367665#0" to="359898521#0" lines="taxi" />
  </person>
  <person id="p_7037" depart="40.00">
    <ride from="-8921236" to="27145835#1" lines="taxi" />
  </person>
  <person id="p_5604" depart="41.00">
    <ride from="968937451#2" to="191010941#3" lines="taxi" />
  </person>
  <person id="p_1790" depart="42.00">
    <ride from="527857404#0" to="425516617#3" lines="taxi" />
  </person>
  <person id="p_3883" depart="42.00">
    <ride from="543844602#0" to="417101719#0" lines="taxi" />
  </person>
  <person id="p_4998" depart="42.00">
    <ride from="417400734#0" to="-88559680#1" lines="taxi" />
  </person>
  <person id="p_6025" depart="42.00">
    <ride from="88463830" to="674757884#0" lines="taxi" />
  </person>
  <person id="p_1979" depart="43.00">
    <ride from="502795940#0" to="-397107863" lines="taxi" />
  </person>
  <person id="p_5457" depart="43.00">
    <ride from="-43100047#0" to="-1151090163" lines="taxi" />
  </person>
  <person id="p_5149" depart="44.00">
    <ride from="-27054294#2" to="417087426" lines="taxi" />
  </person>
  <person id="p_5910" depart="44.00">
    <ride from="29023785#0" to="27040657" lines="taxi" />
  </person>
  <person id="p_6160" depart="44.00">
    <ride from="425516617#3" to="397152177#0" lines="taxi" />
  </person>
  <person id="p_6207" depart="44.00">
    <ride from="425516617#3" to="-27050872" lines="taxi" />
  </person>
  <person id="p_6307" depart="44.00">
    <ride from="397148935" to="-8920704#7" lines="taxi" />
  </person>
  <person id="p_5299" depart="45.00">
    <ride from="254758125#0" to="-682475681#1" lines="taxi" />
  </person>
  <person id="p_6091" depart="45.00">
    <ride from="99231466#0" to="502795940#4" lines="taxi" />
  </person>
  <person id="p_612" depart="47.00">
    <ride from="-286674338#1" to="-110365012#0" lines="taxi" />
  </person>
  <person id="p_1884" depart="47.00">
    <ride from="935446073#3" to="247966218#1" lines="taxi" />
  </person>
  <person id="p_2864" depart="47.00">
    <ride from="-27092233#2" to="397113425#0" lines="taxi" />
  </person>
  <person id="p_4331" depart="47.00">
    <ride from="-674189179" to="706532925#0" lines="taxi" />
  </person>
  <person id="p_5755" depart="47.00">
    <ride from="88572948#0" to="88572948#0" lines="taxi" />
  </person>
  <person id="p_7544" depart="47.00">
    <ride from="46594527#0" to="27145835#1" lines="taxi" />
  </person>
  <person id="p_5893" depart="48.00">
    <ride from="-204884397#1" to="-27398133#2" lines="taxi" />
  </person>
  <person id="p_2416" depart="49.00">
    <ride from="-1210012557" to="247966218#1" lines="taxi" />
  </person>
  <person id="p_6343" depart="49.00">
    <ride from="397146712#0" to="-681892553#2" lines="taxi" />
  </person>
  <person id="p_7691" depart="49.00">
    <ride from="364480068#0" to="359898521#0" lines="taxi" />
  </person>
  <person id="p_5397" depart="50.00">
    <ride from="-27054290#0" to="396952203#0" lines="taxi" />
  </person>
  <person id="p_1740" depart="51.00">
    <ride from="968937453#0" to="502795938#0" lines="taxi" />
  </person>
  <person id="p_2462" depart="51.00">
    <ride from="85562522#0" to="8919163#2" lines="taxi" />
  </person>
  <person id="p_7484" depart="51.00">
    <ride from="-770016877#1" to="8917058" lines="taxi" />
  </person>
  <person id="p_1597" depart="52.00">
    <ride from="E42" to="123741454" lines="taxi" />
  </person>
  <person id="p_3088" depart="53.00">
    <ride from="-514673436#1" to="417087306#0.43" lines="taxi" />
  </person>
  <person id="p_3895" depart="53.00">
    <ride from="-1020490223#0" to="91181769#2" lines="taxi" />
  </person>
  <person id="p_5626" depart="53.00">
    <ride from="286003244#0" to="286003244#5" lines="taxi" />
  </person>
  <person id="p_430" depart="54.00">
    <ride from="-27028586" to="417392975" lines="taxi" />
  </person>
  <person id="p_258" depart="55.00">
    <ride from="8917166#1" to="526276799#1" lines="taxi" />
  </person>
  <person id="p_2075" depart="55.00">
    <ride from="-717376552" to="-48959760#3" lines="taxi" />
  </person>
  <person id="p_6885" depart="55.00">
    <ride from="-706545921#0" to="-681892553#2" lines="taxi" />
  </person>
  <person id="p_2314" depart="57.00">
    <ride from="406580281#0" to="397148935" lines="taxi" />
  </person>
  <person id="p_176" depart="58.00">
    <ride from="-397120479" to="-26938418#0" lines="taxi" />
  </person>
  <person id="p_246" depart="58.00">
    <ride from="254982311#1" to="-27398133#2" lines="taxi" />
  </person>
  <person id="p_1132" depart="60.00">
    <ride from="-280404910" to="8917284#13" lines="taxi" />
  </person>
  <person id="p_2195" depart="60.00">
    <ride from="-85644919#8" to="-397097610" lines="taxi" />
  </person>
  <person id="p_5150" depart="60.00">
    <ride from="-27054294#2" to="8915244" lines="taxi" />
  </person>
  <person id="p_2823" depart="61.00">
    <ride from="-133743878" to="286003244#5" lines="taxi" />
  </person>
  <person id="p_4031" depart="61.00">
    <ride from="693633428#6" to="437935567#0" lines="taxi" />
  </person>
  <person id="p_7101" depart="61.00">
    <ride from="-26988007#2" to="502795545#0" lines="taxi" />
  </person>
  <person id="p_7270" depart="61.00">
    <ride from="-8920389" to="364480068#0" lines="taxi" />
  </person>
  <person id="p_7512" depart="61.00">
    <ride from="-442572410" to="254305033#4" lines="taxi" />
  </person>
  <person id="p_293" depart="62.00">
    <ride from="935795985" to="-8918884#0" lines="taxi" />
  </person>
  <person id="p_389" depart="62.00">
    <ride from="-680402702" to="8918939#5" lines="taxi" />
  </person>
  <person id="p_4779" depart="62.00">
    <ride from="-414925283#1" to="-158621854#1" lines="taxi" />
  </person>
  <person id="p_4578" depart="63.00">
    <ride from="-681500371#0" to="1178379352#5" lines="taxi" />
  </person>
  <person id="p_6477" depart="63.00">
    <ride from="254466695" to="279611139" lines="taxi" />
  </person>
  <person id="p_6858" depart="63.00">
    <ride from="47108420" to="-111089307#1" lines="taxi" />
  </person>
  <person id="p_1996" depart="65.00">
    <ride from="686246696#0" to="-397250667#1" lines="taxi" />
  </person>
  <person id="p_2158" depart="65.00">
    <ride from="399156535#0" to="254759914#0" lines="taxi" />
  </person>
  <person id="p_2112" depart="66.00">
    <ride from="-144346316#8" to="-225854652#0" lines="taxi" />
  </person>
  <person id="p_4820" depart="67.00">
    <ride from="1166095110#0" to="-88559680#1" lines="taxi" />
  </person>
  <person id="p_230" depart="68.00">
    <ride from="-8917166#7" to="769473273" lines="taxi" />
  </person>
  <person id="p_904" depart="68.00">
    <ride from="-677693268" to="-706533481#4" lines="taxi" />
  </person>
  <person id="p_1776" depart="68.00">
    <ride from="396976080#0" to="-8916760#0" lines="taxi" />
  </person>
  <person id="p_5432" depart="68.00">
    <ride from="417400769#0" to="-88559680#1" lines="taxi" />
  </person>
  <person id="p_5511" depart="68.00">
    <ride from="396959349#0" to="-34128471#2" lines="taxi" />
  </person>
  <person id="p_7737" depart="69.00">
    <ride from="-254466686#4" to="417087426" lines="taxi" />
  </person>
  <person id="p_1791" depart="70.00">
    <ride from="527857404#0" to="-111089307#1" lines="taxi" />
  </person>
  <person id="p_4924" depart="70.00">
    <ride from="-721726242" to="-162931971#3" lines="taxi" />
  </person>
  <person id="p_2736" depart="71.00">
    <ride from="-678902225#2" to="-396950797" lines="taxi" />
  </person>
  <person id="p_3404" depart="71.00">
    <ride from="198565351" to="91181769#2" lines="taxi" />
  </person>
  <person id="p_237" depart="72.00">
    <ride from="467626518" to="437558240#1" lines="taxi" />
  </person>
  <person id="p_3255" depart="72.00">
    <ride from="8920632" to="-E14" lines="taxi" />
  </person>
  <person id="p_7202" depart="72.00">
    <ride from="513928557" to="26988072" lines="taxi" />
  </person>
  <person id="p_2788" depart="73.00">
    <ride from="-192552300#16" to="-12247498#2" lines="taxi" />
  </person>
  <person id="p_4967" depart="73.00">
    <ride from="133856274" to="742986525#2" lines="taxi" />
  </person>
  <person id="p_4984" depart="73.00">
    <ride from="417400734#0" to="-505667523" lines="taxi" />
  </person>
  <person id="p_6977" depart="73.00">
    <ride from="-397130970#1" to="219171860#0" lines="taxi" />
  </person>
  <person id="p_2298" depart="74.00">
    <ride from="406580281#0" to="-254758120#3" lines="taxi" />
  </person>
  <person id="p_3952" depart="74.00">
    <ride from="-101153942#2" to="-8917324#0" lines="taxi" />
  </person>
  <person id="p_6350" depart="74.00">
    <ride from="397146712#0" to="254759915#7" lines="taxi" />
  </person>
  <person id="p_7464" depart="74.00">
    <ride from="-770016877#1" to="1011004734#0" lines="taxi" />
  </person>
  <person id="p_4587" depart="75.00">
    <ride from="-26786641#0" to="683423171#0" lines="taxi" />
  </person>
  <person id="p_4538" depart="76.00">
    <ride from="-8917416#0" to="406946351" lines="taxi" />
  </person>
  <person id="p_1677" depart="78.00">
    <ride from="23880808" to="158468953" lines="taxi" />
  </person>
  <person id="p_4606" depart="78.00">
    <ride from="215524529" to="27146036#0" lines="taxi" />
  </person>
  <person id="p_59" depart="79.00">
    <ride from="286493661#2" to="8919163#7" lines="taxi" />
  </person>
  <person id="p_6790" depart="79.00">
    <ride from="254971070#4" to="771410424#0" lines="taxi" />
  </person>
  <person id="p_433" depart="80.00">
    <ride from="813986023#1" to="-619568437#2" lines="taxi" />
  </person>
  <person id="p_1097" depart="80.00">
    <ride from="-721739165#0" to="254396719#0" lines="taxi" />
  </person>
  <person id="p_1615" depart="80.00">
    <ride from="1032783936" to="-8915869#1" lines="taxi" />
  </person>
  <person id="p_2162" depart="80.00">
    <ride from="399156535#0" to="175507524#0" lines="taxi" />
  </person>
  <person id="p_6600" depart="80.00">
    <ride from="513676822#0" to="-88559680#1" lines="taxi" />
  </person>
  <person id="p_4054" depart="83.00">
    <ride from="417087280#0" to="514600598#1" lines="taxi" />
  </person>
  <person id="p_1307" depart="84.00">
    <ride from="-133781712" to="-505761791#1" lines="taxi" />
  </person>
  <person id="p_1388" depart="84.00">
    <ride from="399138117#0" to="-1031915407" lines="taxi" />
  </person>
  <person id="p_5505" depart="84.00">
    <ride from="-681699527" to="144489134#0" lines="taxi" />
  </person>
  <person id="p_5526" depart="85.00">
    <ride from="91181770#2" to="417087426" lines="taxi" />
  </person>
  <person id="p_5752" depart="85.00">
    <ride from="88572948#0" to="255330036#0" lines="taxi" />
  </person>
  <person id="p_1769" depart="86.00">
    <ride from="262933359#0" to="397148935" lines="taxi" />
  </person>
  <person id="p_4596" depart="86.00">
    <ride from="215524529" to="688508131" lines="taxi" />
  </person>
  <person id="p_4455" depart="87.00">
    <ride from="468552082#0" to="27146036#0" lines="taxi" />
  </person>
  <person id="p_1581" depart="88.00">
    <ride from="30832489#0" to="-397250667#1" lines="taxi" />
  </person>
  <person id="p_2052" depart="88.00">
    <ride from="-717376552" to="8916215" lines="taxi" />
  </person>
  <person id="p_3843" depart="88.00">
    <ride from="543844602#0" to="468204139#0" lines="taxi" />
  </person>
  <person id="p_4989" depart="88.00">
    <ride from="417400734#0" to="-27050872" lines="taxi" />
  </person>
  <person id="p_5238" depart="89.00">
    <ride from="1112271467#0" to="183198859#1" lines="taxi" />
  </person>
  <person id="p_7475" depart="89.00">
    <ride from="-770016877#1" to="8917437" lines="taxi" />
  </person>
  <person id="p_46" depart="90.00">
    <ride from="-254968943#1" to="8921645" lines="taxi" />
  </person>
  <person id="p_508" depart="91.00">
    <ride from="-254299729#5" to="25758528#0" lines="taxi" />
  </person>
  <person id="p_3002" depart="91.00">
    <ride from="419657507#2" to="91181769#2" lines="taxi" />
  </person>
  <person id="p_3298" depart="91.00">
    <ride from="119237698" to="8919163#7" lines="taxi" />
  </person>
  <person id="p_4330" depart="91.00">
    <ride from="-674189179" to="-86331207#5" lines="taxi" />
  </person>
  <person id="p_6149" depart="91.00">
    <ride from="-414979750#4" to="8915244" lines="taxi" />
  </person>
  <person id="p_1972" depart="92.00">
    <ride from="935446073#0" to="-E14" lines="taxi" />
  </person>
  <person id="p_5351" depart="92.00">
    <ride from="84734271#0" to="25758528#0" lines="taxi" />
  </person>
  <person id="p_3115" depart="93.00">
    <ride from="-8918643" to="329596844#0" lines="taxi" />
  </person>
  <person id="p_4010" depart="93.00">
    <ride from="88572914#0" to="27054196#0" lines="taxi" />
  </person>
  <person id="p_5235" depart="93.00">
    <ride from="1112271467#0" to="-110365012#0" lines="taxi" />
  </person>
  <person id="p_2187" depart="94.00">
    <ride from="674757885#0" to="224200968#0" lines="taxi" />
  </person>
  <person id="p_5971" depart="94.00">
    <ride from="674757885#0" to="-254466686#4" lines="taxi" />
  </person>
  <person id="p_4914" depart="98.00">
    <ride from="-721726242" to="417087306#0.43" lines="taxi" />
  </person>
  <person id="p_310" depart="99.00">
    <ride from="-26378106#0" to="-1012994252#1" lines="taxi" />
  </person>
  <person id="p_1871" depart="99.00">
    <ride from="619378868#0" to="502795545#0" lines="taxi" />
  </person>
  <person id="p_6209" depart="99.00">
    <ride from="425516617#3" to="46269182" lines="taxi" />
  </person>
  <person id="p_4346" depart="100.00">
    <ride from="-674189179" to="-514673436#1" lines="taxi" />
  </person>
  <person id="p_1463" depart="101.00">
    <ride from="-86331217#5" to="1059508735" lines="taxi" />
  </person>
  <person id="p_3914" depart="101.00">
    <ride from="514683825#0" to="27146036#0" lines="taxi" />
  </person>
  <person id="p_952" depart="102.00">
    <ride from="191010941#24" to="-111089307#1" lines="taxi" />
  </person>
  <person id="p_4280" depart="102.00">
    <ride from="675862895#0" to="770522137#1" lines="taxi" />
  </person>
  <person id="p_5228" depart="102.00">
    <ride from="425516613#0" to="674757884#0" lines="taxi" />
  </person>
  <person id="p_6501" depart="102.00">
    <ride from="1030276936#0" to="397152177#0" lines="taxi" />
  </person>
  <person id="p_4650" depart="103.00">
    <ride from="-397079284" to="-254750821#11" lines="taxi" />
  </person>
  <person id="p_4964" depart="103.00">
    <ride from="396968568#0" to="254971067#0" lines="taxi" />
  </person>
  <person id="p_5884" depart="103.00">
    <ride from="513701212#0" to="28841121#0" lines="taxi" />
  </person>
  <person id="p_7166" depart="103.00">
    <ride from="-254299112#6" to="-254396705#14" lines="taxi" />
  </person>
  <person id="p_4" depart="104.00">
    <ride from="E6" to="28841123" lines="taxi" />
  </person>
  <person id="p_2708" depart="104.00">
    <ride from="397147546#0" to="996695179#4" lines="taxi" />
  </person>
  <person id="p_4221" depart="104.00">
    <ride from="25758528#0" to="-100400941#5" lines="taxi" />
  </person>
  <person id="p_6792" depart="104.00">
    <ride from="254971070#4" to="1059508735" lines="taxi" />
  </person>
  <person id="p_7504" depart="105.00">
    <ride from="-442572410" to="781810755" lines="taxi" />
  </person>
  <person id="p_3775" depart="106.00">
    <ride from="247966219#0" to="769473273" lines="taxi" />
  </person>
  <person id="p_7519" depart="106.00">
    <ride from="255351742#2" to="-8919118#1" lines="taxi" />
  </person>
  <person id="p_3902" depart="107.00">
    <ride from="32121424#1" to="406946351" lines="taxi" />
  </person>
  <person id="p_4565" depart="107.00">
    <ride from="-417392953" to="619568405#0" lines="taxi" />
  </person>
  <person id="p_75" depart="108.00">
    <ride from="-400104483#6" to="91181769#2" lines="taxi" />
  </person>
  <person id="p_656" depart="108.00">
    <ride from="-514456306#1" to="162799061#0" lines="taxi" />
  </person>
  <person id="p_6657" depart="108.00">
    <ride from="283512618#0" to="-1210012557" lines="taxi" />
  </person>
  <person id="p_2081" depart="109.00">
    <ride from="-8916386#2" to="394443192#0" lines="taxi" />
  </person>
  <person id="p_263" depart="110.00">
    <ride from="8917166#1" to="184255588#0" lines="taxi" />
  </person>
  <person id="p_283" depart="110.00">
    <ride from="-255170268#0" to="111552058#2" lines="taxi" />
  </person>
  <person id="p_4634" depart="110.00">
    <ride from="-468000213" to="-228196396#1" lines="taxi" />
  </person>
  <person id="p_1186" depart="111.00">
    <ride from="1170446824" to="620169771#0" lines="taxi" />
  </person>
  <person id="p_4182" depart="111.00">
    <ride from="111550910#0" to="539195908#0" lines="taxi" />
  </person>
  <person id="p_4224" depart="112.00">
    <ride from="25758528#0" to="397135724" lines="taxi" />
  </person>
  <person id="p_6356" depart="112.00">
    <ride from="397146712#0" to="397135724" lines="taxi" />
  </person>
  <person id="p_4510" depart="113.00">
    <ride from="516940745" to="-51392400" lines="taxi" />
  </person>
  <person id="p_4592" depart="113.00">
    <ride from="215524529" to="694006774" lines="taxi" />
  </person>
  <person id="p_505" depart="114.00">
    <ride from="-254299729#5" to="394443196" lines="taxi" />
  </person>
  <person id="p_1589" depart="114.00">
    <ride from="30832489#0" to="-682475681#1" lines="taxi" />
  </person>
  <person id="p_1696" depart="115.00">
    <ride from="-86331215#0" to="514675663" lines="taxi" />
  </person>
  <person id="p_3959" depart="115.00">
    <ride from="-502795549#2" to="425516617#3" lines="taxi" />
  </person>
  <person id="p_3530" depart="116.00">
    <ride from="513963921#0" to="88142690#1" lines="taxi" />
  </person>
  <person id="p_7354" depart="117.00">
    <ride from="-667396978#1" to="771410365#0" lines="taxi" />
  </person>
  <person id="p_5201" depart="118.00">
    <ride from="254758131#0" to="254396719#0" lines="taxi" />
  </person>
  <person id="p_7729" depart="118.00">
    <ride from="-254466686#4" to="-1122268859" lines="taxi" />
  </person>
  <person id="p_545" depart="119.00">
    <ride from="-254971063#1" to="530061630" lines="taxi" />
  </person>
  <person id="p_5783" depart="119.00">
    <ride from="88559691#2" to="396955701" lines="taxi" />
  </person>
  <person id="p_6182" depart="119.00">
    <ride from="425516617#3" to="-397104884#1" lines="taxi" />
  </person>
  <person id="p_7066" depart="119.00">
    <ride from="-85644937#1" to="-505667523" lines="taxi" />
  </person>
  <person id="p_638" depart="120.00">
    <ride from="-110330885#0" to="-474109100#1" lines="taxi" />
  </person>
  <person id="p_1773" depart="120.00">
    <ride from="396976080#0" to="225518512" lines="taxi" />
  </person>
  <person id="p_2547" depart="120.00">
    <ride from="28805008" to="850162149" lines="taxi" />
  </person>
  <person id="p_964" depart="121.00">
    <ride from="-27092627#1" to="-397148934#1" lines="taxi" />
  </person>
  <person id="p_2225" depart="121.00">
    <ride from="769490512#1" to="-8916683#2" lines="taxi" />
  </person>
  <person id="p_2751" depart="121.00">
    <ride from="408600377" to="27028511#2" lines="taxi" />
  </person>
  <person id="p_3164" depart="121.00">
    <ride from="-721739166" to="8919665#0" lines="taxi" />
  </person>
  <person id="p_3849" depart="121.00">
    <ride from="543844602#0" to="-E14" lines="taxi" />
  </person>
  <person id="p_7051" depart="121.00">
    <ride from="-85644937#1" to="91181769#2" lines="taxi" />
  </person>
  <person id="p_3690" depart="122.00">
    <ride from="688508131" to="26988072" lines="taxi" />
  </person>
  <person id="p_3987" depart="122.00">
    <ride from="8917757#1" to="527857397#0" lines="taxi" />
  </person>
  <person id="p_2959" depart="123.00">
    <ride from="1088316558#1" to="-514673436#1" lines="taxi" />
  </person>
  <person id="p_6310" depart="123.00">
    <ride from="397148935" to="-34128471#2" lines="taxi" />
  </person>