<?xml version="1.0" encoding="UTF-8"?>

<!-- generated on 2025-04-30 09:24:51 by Eclipse SUMO polyconvert Version 1.21.0
<polyconvertConfiguration xmlns:xsi="http://www.w3.org/2001/XMLSchema-instance" xsi:noNamespaceSchemaLocation="http://sumo.dlr.de/xsd/polyconvertConfiguration.xsd">

    <input>
        <net-file value="/Users/beyzaeken/Desktop/ridesharingmirror/sumoenv/sf.net.xml""/>
        <shapefile-prefixes value="/Users/beyzaeken/Desktop/ridesharingmirror/data/sf_zones/TAZ981"/>
        <shapefile.id-column value="TAZ"/>
        <shapefile.type-columns value="zone"/>
        <shapefile.fill value="false"/>
    </input>

    <output>
        <output-file value="/Users/beyzaeken/Desktop/ridesharingmirror/sumoenv/taz_zones.poly.xml"/>
    </output>

    <building_defaults>
        <color value="255,255,255"/>
    </building_defaults>

</polyconvertConfiguration>
-->

<additional xmlns:xsi="http://www.w3.org/2001/XMLSchema-instance" xsi:noNamespaceSchemaLocation="http://sumo.dlr.de/xsd/additional_file.xsd">
    <location netOffset="0.00,0.00" convBoundary="490486.04,4171760.84,559203.40,4190820.31" origBoundary="-123.108027,37.693065,-122.327681,37.863426" projParameter="+proj=utm +zone=10 +ellps=WGS84 +datum=WGS84 +units=m +no_defs"/>

    <poly id="1" type="unknown" color="white" fill="0" layer="-1.00" shape="551456.519839,4173614.566945 551479.179833,4173679.146905 551478.923535,4173688.741003 551479.866230,4173716.237924 551475.836811,4173735.829245 551474.492795,4173751.911186 551479.288863,4173766.365815 551540.921003,4173741.340849 551563.861659,4173806.841624 551594.310754,4173893.652491 551659.528028,4173871.352103 551725.050909,4173849.021637 551748.690736,4173916.865420 551802.376501,4173898.333915 551884.677577,4173869.822238 551831.055273,4173714.799217 551808.135272,4173648.536275 551797.097285,4173616.730634 551710.694618,4173616.213024 551688.293583,4173616.110582 551633.129273,4173615.818034 551619.566235,4173615.760040 551543.831521,4173615.261631 551535.298691,4173615.186005 551456.519839,4173614.566945"/>
    <poly id="10" type="unknown" color="white" fill="0" layer="-1.00" shape="547369.386092,4173927.630426 547367.927607,4174027.838111 547367.798065,4174055.534733 547368.376861,4174125.125100 547680.855077,4174129.320244 547942.741906,4174133.229911 547943.959466,4174036.292340 548065.531025,4174038.206540 548028.554535,4173990.353317 547984.401406,4173942.993507 547970.771500,4173928.341489 547964.886901,4173914.733840 547930.563100,4173875.981351 547918.957944,4173871.099194 547833.251911,4173850.216112 547745.622701,4173844.293384 547641.559864,4173843.113824 547516.781362,4173841.456538 547505.727702,4173850.152856 547479.748755,4173864.166226 547428.620722,4173883.947979 547371.652017,4173905.554023 547414.026993,4173928.175331 547369.386092,4173927.630426"/>
    <poly id="100" type="unknown" color="white" fill="0" layer="-1.00" shape="551779.449489,4176667.612131 551771.145225,4176539.176077 551716.346860,4176542.284147 551661.701780,4176545.396128 551606.598516,4176548.496051 551614.874289,4176677.998336 551623.426481,4176808.537599 551632.541619,4176946.558783 551636.762280,4177011.064630 551683.266585,4177016.041521 551691.923317,4177017.187211 551703.002279,4177018.931206 551749.310700,4177054.079616 551807.710304,4177098.695356 551796.969411,4176935.977817 551787.858496,4176797.804094 551779.449489,4176667.612131"/>
    <poly id="101" type="unknown" color="white" fill="0" layer="-1.00" shape="550234.453289,4177204.649710 550332.172623,4177135.247241 550404.727827,4177083.614385 550427.994738,4177085.531400 550518.934706,4177093.066745 550610.634998,4177100.622437 550705.376405,4177108.487694 550736.587624,4177109.703368 550744.001749,4177100.299736 550725.142004,4177007.587452 550715.832331,4176979.524436 550703.703170,4176942.926913 550689.409017,4176913.205927 550688.110075,4176910.466261 550671.360167,4176875.688348 550653.248162,4176851.923720 550642.797567,4176838.080862 550624.543314,4176813.968965 550590.188158,4176776.396649 550588.854627,4176774.951569 550531.693559,4176712.499019 550527.825090,4176708.966390 550512.128368,4176720.320225 550488.351781,4176737.479109 550473.714933,4176754.767029 550424.756671,4176813.127307 550376.097272,4176871.686440 550334.055944,4176922.153304 550334.298485,4176935.914445 550333.925139,4176955.565813 550333.698043,4176969.772000 550287.853585,4177008.554109 550194.896305,4177030.913198 550130.702415,4177026.302196 550117.899519,4177026.341084 550106.098579,4177040.199624 550065.987261,4177098.262651 550154.574808,4177159.611835 550155.275043,4177167.632882 550189.921350,4177142.952981 550234.453289,4177204.649710"/>
    <poly id="102" type="unknown" color="white" fill="0" layer="-1.00" shape="551184.582758,4176964.691039 551164.607948,4176925.102157 551134.392506,4176932.258791 551104.854350,4176931.164486 551071.307843,4176914.646307 551043.460324,4176895.918172 551023.365467,4176860.822382 551013.921275,4176843.500351 551008.557115,4176821.829265 550829.063010,4176831.588503 550747.698405,4176836.463180 550735.597144,4176827.338155 550683.012353,4176833.172808 550653.248162,4176851.923720 550671.360167,4176875.688349 550688.110075,4176910.466261 550689.409017,4176913.205927 550703.703170,4176942.926913 550715.832331,4176979.524436 550725.142004,4177007.587452 550744.001749,4177100.299736 550736.587624,4177109.703368 550786.527461,4177111.571276 550829.232449,4177196.003792 550850.948263,4177238.877424 550948.123316,4177189.882850 551026.296237,4177150.439847 551077.738823,4177124.610098 551126.713776,4177099.856357 551140.461981,4177092.984181 551175.840941,4177075.106679 551227.131194,4177049.272058 551184.582758,4176964.691039"/>
    <poly id="103" type="unknown" color="white" fill="0" layer="-1.00" shape="547656.179532,4177060.928397 547679.571511,4177012.554101 547675.583007,4177013.514547 547667.911062,4177015.443469 547657.788590,4177012.124714 547652.500333,4177010.382975 547648.764028,4177007.616572 547644.431130,4177004.375722 547640.000592,4176999.075935 547637.491097,4176996.036456 547614.526498,4176942.842646 547617.522055,4176933.396678 547612.057503,4176904.064214 547604.190376,4176861.941700 547602.661705,4176862.129196 547596.546915,4176862.804524 547582.784530,4176870.209691 547581.250759,4176870.588079 547572.047937,4176872.780247 547554.213062,4176867.198187 547549.620072,4176862.236613 547545.766804,4176858.170972 547541.527639,4176845.674315 547541.230065,4176834.007248 547541.076767,4176788.394896 547541.070685,4176782.945664 547541.286404,4176769.158406 547545.796772,4176748.665816 547546.326491,4176745.936611 547547.616350,4176743.303738 547553.737494,4176730.970591 547559.423420,4176723.502071 547569.373452,4176710.470133 547575.441719,4176700.116032 547581.505915,4176689.914293 547585.597241,4176679.393126 547588.862089,4176671.288112 547592.800086,4176655.085622 547597.440449,4176635.434111 547603.120687,4176616.764066 547606.285051,4176606.713338 547608.533379,4176602.429608 547613.506903,4176593.113300 547627.286085,4176567.952713 547631.331842,4176553.429262 547634.022415,4176544.014466 547635.778204,4176529.619763 547636.743831,4176522.025155 547634.932381,4176487.151417 547624.968919,4176472.140368 547580.342723,4176528.101175 547551.205515,4176557.613498 547538.674774,4176570.271394 547470.906828,4176636.702109 547400.354764,4176698.981494 547303.259928,4176773.505852 547160.814984,4176868.346297 547063.618665,4176935.285877 547035.666313,4177017.449340 547067.270377,4177032.467579 547073.812926,4177038.586630 547116.313647,4177067.917307 547179.716388,4177085.004833 547208.525521,4177090.575936 547220.766096,4177094.484715 547263.751155,4177099.976105 547304.865195,4177107.018710 547328.289375,4177108.788218 547402.813863,4177120.304625 547483.743530,4177137.402682 547546.889439,4177141.300549 547673.814924,4177165.266564 547678.068235,4177142.976544 547654.877048,4177121.095181 547649.724580,4177091.466997 547656.179532,4177060.928397"/>
    <poly id="104" type="unknown" color="white" fill="0" layer="-1.00" shape="550798.530627,4177312.614669 550763.180260,4177198.201819 550762.622271,4177196.281336 550746.279103,4177117.734456 550736.587624,4177109.703368 550705.376405,4177108.487693 550610.634998,4177100.622437 550518.934706,4177093.066745 550427.994738,4177085.531400 550404.727827,4177083.614384 550332.172623,4177135.247241 550234.453289,4177204.649710 550189.921350,4177142.952981 550155.275043,4177167.632882 550141.344300,4177323.936714 550161.417553,4177325.616697 550224.226062,4177330.723346 550315.469975,4177338.267632 550331.589478,4177339.612752 550406.257414,4177345.798961 550465.566622,4177350.660437 550497.351003,4177353.262601 550526.245734,4177355.634325 550560.764333,4177358.537914 550588.290062,4177360.797983 550639.083521,4177364.974336 550727.439830,4177372.212219 550784.008443,4177377.000442 550810.924367,4177379.244249 550814.517529,4177370.271959 550798.530627,4177312.614669"/>
    <poly id="105" type="unknown" color="white" fill="0" layer="-1.00" shape="551298.047751,4177190.163919 551227.131194,4177049.272058 551175.840941,4177075.106679 551140.461981,4177092.984181 551126.713776,4177099.856357 551077.738823,4177124.610098 551026.296237,4177150.439847 550948.123316,4177189.882850 550989.684802,4177271.465779 551014.448856,4177320.059923 551039.351982,4177369.115503 551049.482247,4177389.275995 551065.945345,4177423.397679 551117.231501,4177397.715444 551145.188593,4177383.831764 551196.165826,4177358.292978 551211.928625,4177350.179123 551214.968884,4177344.773982 551215.809676,4177336.108957 551210.174099,4177273.241657 551211.037503,4177258.023814 551204.000146,4177236.193951 551247.092905,4177214.864791 551298.047751,4177190.163919"/>
    <poly id="106" type="unknown" color="white" fill="0" layer="-1.00" shape="543959.508351,4176553.438667 543971.525663,4176582.793472 543966.560353,4176677.382211 543953.858458,4176884.660612 543941.193372,4177090.606410 543928.512740,4177297.085536 544022.849038,4177302.959340 544117.185049,4177308.832514 544129.719253,4177102.121265 544142.388571,4176896.023061 544049.265088,4176890.410652 544060.900727,4176683.103585 544155.088608,4176688.820104 544162.870144,4176562.986338 544162.585071,4176539.432426 544156.558327,4176514.009475 544141.234610,4176482.890176 544127.499387,4176455.051532 544106.757119,4176472.709922 544043.986633,4176511.839530 544030.828681,4176519.451862 544005.901893,4176533.988247 543998.953771,4176537.384475 543977.953476,4176547.568056 543970.728488,4176549.889707 543959.508351,4176553.438667"/>
    <poly id="107" type="unknown" color="white" fill="0" layer="-1.00" shape="550161.417553,4177325.616697 550141.344300,4177323.936714 550135.609372,4177333.232702 550129.074169,4177412.387760 550324.188728,4177428.345602 550518.999549,4177444.295518 550511.745212,4177533.261432 550712.937242,4177549.915308 550864.100249,4177562.336617 550835.928188,4177470.214198 550810.924367,4177379.244249 550784.008443,4177377.000442 550727.439830,4177372.212219 550639.083521,4177364.974336 550588.290062,4177360.797983 550560.764333,4177358.537914 550526.245734,4177355.634325 550497.351003,4177353.262601 550465.566622,4177350.660437 550406.257414,4177345.798961 550331.589478,4177339.612752 550315.469976,4177338.267632 550224.226062,4177330.723346 550161.417553,4177325.616697"/>
    <poly id="108" type="unknown" color="white" fill="0" layer="-1.00" shape="550989.684801,4177271.465779 550948.123316,4177189.882850 550850.948263,4177238.877424 550829.232449,4177196.003792 550786.527461,4177111.571276 550736.587624,4177109.703368 550746.279103,4177117.734456 550762.622271,4177196.281336 550763.180260,4177198.201819 550798.530627,4177312.614669 550814.517529,4177370.271959 550810.924367,4177379.244249 550835.928188,4177470.214198 550864.100249,4177562.336617 550925.095548,4177566.862169 551020.468068,4177573.906764 550968.930919,4177472.091584 551065.945345,4177423.397679 551049.482247,4177389.275995 551039.351982,4177369.115503 551014.448855,4177320.059923 550989.684801,4177271.465779"/>
    <poly id="109" type="unknown" color="white" fill="0" layer="-1.00" shape="547067.270377,4177032.467579 547035.666313,4177017.449340 546975.913234,4177063.404258 546961.838597,4177071.106196 547063.519886,4177201.388760 547037.469654,4177218.067590 546996.996439,4177244.038607 546985.133697,4177248.827216 546984.537841,4177259.708453 547063.798394,4177498.974697 547158.027046,4177508.883558 547250.560227,4177519.509803 547323.418069,4177479.315740 547404.693757,4177437.822133 547428.586072,4177422.076789 547455.462613,4177402.981952 547467.352844,4177391.488062 547486.931756,4177366.024862 547515.570340,4177326.630717 547591.033505,4177223.179544 547621.591124,4177180.407407 547640.612596,4177170.095225 547673.814924,4177165.266564 547546.889439,4177141.300549 547483.743530,4177137.402682 547402.813863,4177120.304625 547328.289375,4177108.788218 547304.865195,4177107.018710 547263.751155,4177099.976104 547220.766096,4177094.484715 547208.525521,4177090.575937 547179.716388,4177085.004833 547116.313647,4177067.917307 547073.812927,4177038.586630 547067.270377,4177032.467579"/>
    <poly id="11" type="unknown" color="white" fill="0" layer="-1.00" shape="548997.436099,4173972.533089 549027.333894,4173983.010442 549032.294157,4173985.581186 549065.815240,4173997.336449 549076.988586,4174001.254289 549132.101405,4174020.596426 549169.399729,4174033.556929 549218.326706,4174050.561678 549260.760966,4174065.259855 549304.703422,4174080.531916 549350.912651,4174096.549670 549379.756411,4174106.541128 549383.913579,4174110.653272 549409.120364,4174119.861656 549439.628143,4174130.278372 549484.033121,4174145.371926 549529.043821,4174160.633985 549630.993200,4174195.325842 549653.272343,4174182.889600 549579.652592,4174051.908901 549551.281077,4174001.427114 549529.494035,4174012.542445 549485.089049,4173997.449054 549439.478427,4173981.865711 549394.923102,4173966.692458 549349.159180,4173951.105023 549304.446260,4173936.117652 549259.278915,4173921.041201 549212.752597,4173905.471952 549168.945045,4173890.851962 549121.170808,4173870.638852 549065.257939,4173847.045630 549034.079286,4173918.759565 548997.436099,4173972.533089"/>
    <poly id="110" type="unknown" color="white" fill="0" layer="-1.00" shape="543576.193639,4176861.767465 543487.482316,4176856.425576 543465.230236,4177061.810968 543441.353065,4177259.531585 543447.523540,4177268.155375 543439.494695,4177277.770958 543434.744017,4177318.641912 543417.469363,4177474.626659 543443.640914,4177476.240513 543538.132666,4177481.966010 543632.472856,4177487.687610 543645.202340,4177279.381372 543657.871711,4177073.282192 543670.381449,4176867.484779 543576.193639,4176861.767465"/>
    <poly id="111" type="unknown" color="white" fill="0" layer="-1.00" shape="543764.721623,4176873.206347 543670.381449,4176867.484779 543657.871711,4177073.282192 543645.202340,4177279.381372 543632.472856,4177487.687610 543726.811000,4177493.484995 543821.303716,4177499.209758 543915.794422,4177505.011220 543928.512678,4177297.085456 543941.193298,4177090.606468 543953.858529,4176884.660678 543859.214375,4176878.931017 543764.721623,4176873.206347"/>
    <poly id="112" type="unknown" color="white" fill="0" layer="-1.00" shape="544224.211146,4177107.846949 544129.719326,4177102.121336 544117.185118,4177308.832585 544104.474856,4177516.454460 544198.964651,4177522.255748 544293.457415,4177527.980516 544387.492778,4177533.693977 544481.830999,4177539.491370 544529.001689,4177542.352205 544541.545180,4177335.260152 544550.502211,4177188.272880 544554.246025,4177128.018885 544506.925938,4177125.078394 544412.737256,4177119.360878 544318.854254,4177113.652475 544224.211146,4177107.846949"/>
    <poly id="113" type="unknown" color="white" fill="0" layer="-1.00" shape="550324.188727,4177428.345602 550129.074169,4177412.387760 550121.524020,4177501.040757 550114.080672,4177591.372955 550106.718588,4177678.658834 550302.290708,4177694.628967 550497.252968,4177710.582993 550504.503232,4177621.770234 550511.745212,4177533.261432 550518.999549,4177444.295518 550324.188727,4177428.345602"/>
    <poly id="114" type="unknown" color="white" fill="0" layer="-1.00" shape="552170.076638,4177802.679659 552196.819801,4177754.394649 552201.618635,4177745.911392 552211.199510,4177740.985003 552261.912284,4177725.346920 552266.786065,4177725.477145 552269.651422,4177720.904937 552259.122102,4177687.170051 552253.094086,4177667.500096 552240.194064,4177625.466841 552237.672130,4177617.249901 552221.258241,4177564.154022 552218.485923,4177555.226565 552201.330743,4177499.990377 552156.899931,4177497.279558 552148.342980,4177486.687101 552143.798736,4177394.358235 552140.672408,4177340.245252 552124.042340,4177272.435352 552092.291156,4177274.330190 552026.039664,4177278.275848 551973.373643,4177281.440812 551968.794750,4177281.699432 551949.866835,4177282.794185 551917.503794,4177284.749457 551918.647891,4177304.668956 551919.113813,4177312.108171 551920.463587,4177333.675592 551924.010253,4177400.601554 551927.358459,4177400.767646 551943.262376,4177404.469356 551960.681477,4177414.231577 551981.953574,4177439.490115 551983.720431,4177470.324424 552013.826806,4177472.957630 552026.291439,4177468.490197 552035.755546,4177456.549509 552037.032378,4177494.305120 552027.608012,4177493.367254 552003.124352,4177497.056899 551993.228408,4177502.355652 551960.841367,4177533.725261 551950.561923,4177547.700320 551945.806501,4177611.585402 551940.695441,4177677.366557 552078.771008,4177689.057281 552074.644324,4177695.195325 552069.534048,4177760.976512 552082.521045,4177754.084000 552170.076638,4177802.679659"/>
    <poly id="115" type="unknown" color="white" fill="0" layer="-1.00" shape="546287.286325,4177441.571786 546197.358120,4177436.121485 546192.142849,4177522.931072 546184.816614,4177643.138137 546274.587441,4177648.736723 546368.773499,4177654.530097 546435.728689,4177658.452968 546500.848255,4177662.632098 546562.167562,4177666.403469 546661.068765,4177672.552084 546673.773912,4177465.158731 546575.023016,4177459.090970 546476.117747,4177453.094892 546381.474441,4177447.289354 546287.286325,4177441.571786"/>
    <poly id="116" type="unknown" color="white" fill="0" layer="-1.00" shape="551233.587703,4177303.892234 551211.037503,4177258.023814 551210.174099,4177273.241657 551215.809676,4177336.108957 551214.968884,4177344.773982 551211.928625,4177350.179123 551196.165826,4177358.292978 551145.188593,4177383.831764 551117.231501,4177397.715444 551065.945345,4177423.397679 551143.832133,4177577.202949 551205.515808,4177698.568693 551238.833593,4177763.546694 551259.912105,4177801.755519 551289.678403,4177788.605303 551305.751286,4177780.270669 551341.133270,4177762.317404 551401.388640,4177731.769238 551441.561087,4177711.352305 551327.036180,4177485.622674 551313.956363,4177461.802382 551308.238236,4177453.343071 551282.593150,4177403.505875 551277.509315,4177388.433336 551240.233817,4177311.842905 551233.587703,4177303.892234"/>
    <poly id="117" type="unknown" color="white" fill="0" layer="-1.00" shape="548403.866720,4177564.042379 548463.743957,4177473.510909 548475.062908,4177471.984556 548451.733813,4177443.851202 548447.154793,4177444.109664 548425.323024,4177445.507747 548400.252160,4177442.628130 548369.559447,4177439.140559 548361.586660,4177440.908971 548356.680342,4177441.997363 548316.764056,4177424.318024 548282.288263,4177419.815896 548253.727912,4177422.024307 548242.673309,4177425.082512 548225.784249,4177429.736798 548203.983961,4177441.346872 548197.650479,4177444.530124 548152.932229,4177486.772398 548135.540590,4177476.019776 548130.927206,4177471.857980 548124.079778,4177465.730742 548108.755495,4177451.756782 548083.466761,4177422.809127 548063.222437,4177393.311148 548058.574539,4177384.727843 548048.401729,4177366.166883 548034.680859,4177332.118440 548023.058664,4177305.059670 548020.621600,4177299.279680 548018.751455,4177295.114399 548009.269627,4177279.239241 548004.743701,4177271.803025 548001.056249,4177267.208196 547984.387496,4177246.492269 547966.680882,4177230.397386 547965.183797,4177229.366210 547960.991044,4177226.587762 547944.666617,4177215.787854 547935.080929,4177209.510825 547895.624177,4177186.052920 547876.269917,4177174.561967 547848.980505,4177157.754218 547842.234585,4177153.535447 547778.064000,4177113.870340 547768.940954,4177101.662524 547766.484702,4177079.498323 547766.249024,4177076.900376 547766.899484,4177075.394095 547771.464577,4177064.238061 547772.461037,4177044.069820 547765.055910,4177024.592589 547754.968249,4177014.264416 547747.251834,4177006.437836 547729.292932,4176999.785414 547707.971503,4176999.215736 547688.214175,4177008.518154 547679.571511,4177012.554100 547656.179532,4177060.928397 547649.724580,4177091.466997 547654.877048,4177121.095181 547678.068235,4177142.976544 547673.814924,4177165.266564 547640.612596,4177170.095225 547621.591125,4177180.407407 547591.033506,4177223.179544 547603.701060,4177222.527776 547638.864147,4177218.437590 547662.032290,4177218.371477 547675.146077,4177223.827403 547763.994736,4177286.783919 547846.850785,4177340.130925 547859.969437,4177345.434515 547876.745124,4177362.113855 547884.111808,4177377.323197 547927.244052,4177479.980286 547936.171992,4177493.782578 547992.316832,4177445.979072 548013.664341,4177462.704703 548032.962399,4177487.682223 548061.588974,4177522.890706 548085.695670,4177550.435557 548159.324342,4177618.319323 548252.364551,4177684.131058 548278.889779,4177700.995045 548311.966470,4177723.673244 548404.265924,4177577.617591 548403.866720,4177564.042379"/>
    <poly id="118" type="unknown" color="white" fill="0" layer="-1.00" shape="547496.562675,4177690.074563 547509.898095,4177687.230903 547520.864062,4177687.523906 547510.317449,4177665.828679 547555.449238,4177710.775792 547635.911290,4177694.027124 547643.776337,4177690.578762 547682.733279,4177664.262139 547707.461805,4177657.150752 547798.503824,4177638.017429 547816.404053,4177635.447260 547852.240787,4177640.367635 547881.131378,4177557.314786 547894.346581,4177524.747186 547936.171992,4177493.782578 547927.244052,4177479.980286 547884.111808,4177377.323197 547876.745124,4177362.113855 547859.969437,4177345.434515 547846.850785,4177340.130925 547763.994736,4177286.783919 547675.146077,4177223.827403 547662.032290,4177218.371477 547638.864147,4177218.437590 547603.701060,4177222.527776 547591.033505,4177223.179544 547515.570340,4177326.630717 547486.931757,4177366.024861 547467.352843,4177391.488062 547455.462613,4177402.981952 547428.586072,4177422.076789 547404.693757,4177437.822133 547323.418069,4177479.315739 547250.560227,4177519.509803 547452.409801,4177722.577431 547464.765318,4177716.506640 547481.996199,4177699.058859 547496.562675,4177690.074563"/>
    <poly id="119" type="unknown" color="white" fill="0" layer="-1.00" shape="550712.937242,4177549.915308 550511.745212,4177533.261432 550504.503232,4177621.770234 550497.252968,4177710.582992 550490.613687,4177799.336998 550692.101237,4177816.379646 550893.913291,4177832.669199 550947.295634,4177836.914756 550929.889891,4177775.334224 550928.917247,4177771.802179 550915.872802,4177758.041706 550902.678056,4177744.201195 550899.387358,4177724.757036 550896.383325,4177700.291575 550894.444230,4177693.000288 550883.774853,4177653.088347 550880.115099,4177636.073334 550864.100249,4177562.336617 550712.937242,4177549.915308"/>
    <poly id="12" type="unknown" color="white" fill="0" layer="-1.00" shape="551496.993030,4174079.201986 551473.778269,4174012.588314 551408.563277,4174034.774488 551334.568291,4174054.744690 551294.698079,4174058.175889 551272.257377,4174059.557806 551230.059690,4174013.164463 551174.740791,4174018.659395 551144.780974,4174016.220171 551004.608613,4174043.109939 550977.269174,4174039.560550 550955.544358,4174025.568065 550899.131006,4174072.031831 550938.923571,4174197.003604 550942.022355,4174206.535644 550953.879737,4174219.083384 550967.140689,4174230.448981 551003.463486,4174239.992582 551023.208461,4174236.862458 551496.993030,4174079.201986"/>
    <poly id="120" type="unknown" color="white" fill="0" layer="-1.00" shape="550302.290708,4177694.628967 550106.718588,4177678.658834 550100.074182,4177767.640207 550091.908117,4177856.505081 550085.717964,4177945.575403 550280.093669,4177960.676021 550475.975884,4177976.426200 550483.219929,4177887.841619 550486.988929,4177843.743325 550490.613687,4177799.336998 550497.252968,4177710.582993 550302.290708,4177694.628967"/>
    <poly id="121" type="unknown" color="white" fill="0" layer="-1.00" shape="546274.587441,4177648.736723 546184.816614,4177643.138137 546172.282262,4177849.849854 546261.753203,4177855.288924 546356.091624,4177861.086208 546450.582595,4177866.887752 546510.990181,4177870.559060 546549.485804,4177872.959629 546575.961289,4177874.581434 546646.995531,4177879.832064 546649.351952,4177865.797872 546661.068765,4177672.552084 546562.167562,4177666.403469 546500.848255,4177662.632098 546435.728688,4177658.452968 546368.773499,4177654.530097 546274.587441,4177648.736723"/>
    <poly id="122" type="unknown" color="white" fill="0" layer="-1.00" shape="547685.395743,4177855.530912 547695.768257,4177855.197847 547705.434369,4177858.504571 547753.900068,4177858.504201 547786.307704,4177854.873846 547797.314391,4177853.644096 547811.084835,4177851.649822 547823.018735,4177849.910623 547829.768802,4177848.262046 547898.183148,4177831.800928 547953.484849,4177815.523636 547972.996088,4177809.719879 548043.749581,4177785.548191 548086.276128,4177756.888852 548110.023188,4177740.834530 548133.808350,4177740.478880 548147.076775,4177740.147504 548157.601787,4177739.819274 548244.756490,4177740.700174 548258.773926,4177740.846373 548270.832651,4177740.177399 548293.882854,4177738.812795 548305.961232,4177731.666633 548311.966470,4177723.673244 548278.889779,4177700.995045 548252.364551,4177684.131058 548159.324342,4177618.319324 548085.695670,4177550.435557 548061.588974,4177522.890706 548032.962399,4177487.682222 548013.664341,4177462.704703 547992.316832,4177445.979072 547936.171992,4177493.782578 547894.346580,4177524.747186 547881.131378,4177557.314786 547852.240787,4177640.367635 547816.404053,4177635.447260 547798.503825,4177638.017429 547707.461805,4177657.150752 547682.733279,4177664.262139 547643.776337,4177690.578761 547635.911290,4177694.027124 547555.449238,4177710.775792 547510.317448,4177665.828679 547520.864062,4177687.523906 547509.898095,4177687.230903 547496.562675,4177690.074563 547481.996199,4177699.058859 547464.765318,4177716.506640 547452.409801,4177722.577431 547645.725474,4177914.214965 547685.395743,4177855.530912"/>
    <poly id="123" type="unknown" color="white" fill="0" layer="-1.00" shape="550692.101237,4177816.379646 550490.613687,4177799.336998 550486.988929,4177843.743325 550483.219929,4177887.841619 550475.975884,4177976.426200 550676.418743,4177992.603368 550678.394727,4177992.807691 550692.688589,4177994.028327 550761.109756,4178000.124348 550842.929548,4178006.730055 550858.082230,4178010.030739 550877.329016,4178014.126902 550974.342318,4178016.794940 550979.747288,4177951.403596 550973.059794,4177927.905816 550947.295634,4177836.914756 550893.913291,4177832.669199 550692.101237,4177816.379646"/>
    <poly id="124" type="unknown" color="white" fill="0" layer="-1.00" shape="551248.483815,4177870.110248 551289.678403,4177788.605303 551259.912105,4177801.755519 551238.833593,4177763.546694 551205.515808,4177698.568693 551143.832133,4177577.202949 551065.945345,4177423.397679 550968.930919,4177472.091584 551020.468068,4177573.906764 550925.095548,4177566.862169 550864.100249,4177562.336617 550880.115099,4177636.073335 550883.774853,4177653.088347 550894.444230,4177693.000288 550896.383326,4177700.291575 550899.387358,4177724.757036 550902.678056,4177744.201195 550915.872803,4177758.041706 550928.917247,4177771.802180 550929.889891,4177775.334224 550947.295634,4177836.914756 550973.059795,4177927.905815 550979.747288,4177951.403596 550974.342318,4178016.794940 550982.838502,4178018.241445 551048.187271,4178025.245609 551071.743594,4178027.779841 551168.269117,4178031.578497 551252.961295,4178033.384619 551174.643782,4177878.577688 551248.483815,4177870.110248"/>
    <poly id="125" type="unknown" color="white" fill="0" layer="-1.00" shape="551799.572396,4177891.481209 551753.859691,4177887.728842 551752.034249,4177887.603435 551667.176372,4177880.611437 551655.621572,4177885.256586 551596.468892,4177880.246808 551541.571123,4177875.655783 551541.548020,4177859.423097 551532.203189,4177855.515641 551449.445874,4177866.869001 551289.678403,4177788.605303 551248.483815,4177870.110249 551174.643782,4177878.577688 551252.961295,4178033.384619 551460.826490,4178039.853121 551492.501300,4178040.851172 551543.974855,4178042.379003 551608.999442,4178044.421568 551654.074585,4178045.854457 551846.407898,4178051.832085 551893.312755,4178053.237873 551929.099041,4178054.346697 551937.212413,4177956.030024 551934.236473,4177947.644735 551926.041709,4177923.497532 551925.810667,4177921.460775 551923.575469,4177901.712996 551892.782430,4177899.166589 551836.437684,4177894.507454 551799.572396,4177891.481209"/>