<?xml version='1.0' encoding='utf-8'?>
<routes>
  <person id="p_2351" depart="0.00">
    <ride from="-85644919#8" to="-225806041" lines="taxi" />
  </person>
  <person id="p_5508" depart="0.00">
    <ride from="-8917298#2" to="-414979750#2" lines="taxi" />
  </person>
  <person id="p_6734" depart="0.00">
    <ride from="-24203860#2" to="-254750797#0" lines="taxi" />
  </person>
  <person id="p_207" depart="1.00">
    <ride from="-8915974#3" to="406944767#0" lines="taxi" />
  </person>
  <person id="p_894" depart="1.00">
    <ride from="514580487#0" to="8921019#0" lines="taxi" />
  </person>
  <person id="p_4217" depart="1.00">
    <ride from="1059508735" to="254756526#0" lines="taxi" />
  </person>
  <person id="p_3434" depart="2.00">
    <ride from="-254750798#0" to="-8916450#2" lines="taxi" />
  </person>
  <person id="p_4937" depart="2.00">
    <ride from="1081219362#0" to="935446073#3" lines="taxi" />
  </person>
  <person id="p_5410" depart="2.00">
    <ride from="-283529756#1" to="247966218#4" lines="taxi" />
  </person>
  <person id="p_6198" depart="2.00">
    <ride from="513676831#0" to="981636498#0" lines="taxi" />
  </person>
  <person id="p_6857" depart="2.00">
    <ride from="-28231602#2" to="620169771#0" lines="taxi" />
  </person>
  <person id="p_7697" depart="2.00">
    <ride from="E19" to="408575054" lines="taxi" />
  </person>
  <person id="p_5788" depart="3.00">
    <ride from="88559691#2" to="1120503652" lines="taxi" />
  </person>
  <person id="p_1559" depart="4.00">
    <ride from="-111547662#1" to="396976080#9" lines="taxi" />
  </person>
  <person id="p_1874" depart="4.00">
    <ride from="717320099" to="483931210" lines="taxi" />
  </person>
  <person id="p_2313" depart="4.00">
    <ride from="87376682#0" to="254297759#0" lines="taxi" />
  </person>
  <person id="p_2606" depart="4.00">
    <ride from="85562490#0" to="-88572874#1" lines="taxi" />
  </person>
  <person id="p_3206" depart="4.00">
    <ride from="512658274" to="8920980#0" lines="taxi" />
  </person>
  <person id="p_6097" depart="4.00">
    <ride from="27398032#0" to="1170446824" lines="taxi" />
  </person>
  <person id="p_7113" depart="4.00">
    <ride from="-26988007#2" to="119237698" lines="taxi" />
  </person>
  <person id="p_400" depart="6.00">
    <ride from="-254759920" to="-606336337" lines="taxi" />
  </person>
  <person id="p_990" depart="6.00">
    <ride from="254750818#2" to="-8920402#3" lines="taxi" />
  </person>
  <person id="p_71" depart="7.00">
    <ride from="-243834647#3" to="247966218#4" lines="taxi" />
  </person>
  <person id="p_1606" depart="7.00">
    <ride from="921631726#0" to="440851938#4" lines="taxi" />
  </person>
  <person id="p_7202" depart="7.00">
    <ride from="30831814" to="-262931733#1" lines="taxi" />
  </person>
  <person id="p_2853" depart="8.00">
    <ride from="155963035#0" to="-31780013#0" lines="taxi" />
  </person>
  <person id="p_7273" depart="9.00">
    <ride from="8917445" to="43100047#1" lines="taxi" />
  </person>
  <person id="p_607" depart="10.00">
    <ride from="-514456306#1" to="1125204814#0" lines="taxi" />
  </person>
  <person id="p_3755" depart="10.00">
    <ride from="8915117" to="619979115" lines="taxi" />
  </person>
  <person id="p_729" depart="11.00">
    <ride from="24547827#0" to="-8917416#1" lines="taxi" />
  </person>
  <person id="p_3579" depart="11.00">
    <ride from="143666213" to="-681699527" lines="taxi" />
  </person>
  <person id="p_4230" depart="11.00">
    <ride from="1059508735" to="-88463831#3" lines="taxi" />
  </person>
  <person id="p_5473" depart="11.00">
    <ride from="-88559680#1" to="588724745#0" lines="taxi" />
  </person>
  <person id="p_6996" depart="12.00">
    <ride from="-204967524#2" to="-120256351#2" lines="taxi" />
  </person>
  <person id="p_6476" depart="13.00">
    <ride from="408575054" to="224316514" lines="taxi" />
  </person>
  <person id="p_2670" depart="14.00">
    <ride from="-8916253#1" to="397266204" lines="taxi" />
  </person>
  <person id="p_6817" depart="14.00">
    <ride from="-254984058#0" to="28805059#0" lines="taxi" />
  </person>
  <person id="p_7431" depart="14.00">
    <ride from="87565864#3" to="-286265331#3" lines="taxi" />
  </person>
  <person id="p_369" depart="15.00">
    <ride from="-1120081501#0" to="222822106#3" lines="taxi" />
  </person>
  <person id="p_1737" depart="15.00">
    <ride from="968937453#0" to="-606336337" lines="taxi" />
  </person>
  <person id="p_5806" depart="15.00">
    <ride from="88559691#2" to="425516648" lines="taxi" />
  </person>
  <person id="p_2747" depart="16.00">
    <ride from="286186806#0" to="247966218#4" lines="taxi" />
  </person>
  <person id="p_5536" depart="16.00">
    <ride from="736592136" to="-133755889#2" lines="taxi" />
  </person>
  <person id="p_1387" depart="17.00">
    <ride from="-133781712" to="254971067#0" lines="taxi" />
  </person>
  <person id="p_2015" depart="17.00">
    <ride from="27167298#0" to="-254750797#0" lines="taxi" />
  </person>
  <person id="p_2653" depart="17.00">
    <ride from="276338275" to="449201857#0" lines="taxi" />
  </person>
  <person id="p_5458" depart="17.00">
    <ride from="-88559680#1" to="28805059#2" lines="taxi" />
  </person>
  <person id="p_7357" depart="17.00">
    <ride from="39211615#3" to="1110470601#0" lines="taxi" />
  </person>
  <person id="p_478" depart="18.00">
    <ride from="254759910#8" to="1170446824" lines="taxi" />
  </person>
  <person id="p_3231" depart="18.00">
    <ride from="-25821947" to="224316514" lines="taxi" />
  </person>
  <person id="p_7665" depart="18.00">
    <ride from="224316513#0" to="-8920953" lines="taxi" />
  </person>
  <person id="p_3941" depart="19.00">
    <ride from="-468000213" to="-8916216#5" lines="taxi" />
  </person>
  <person id="p_5344" depart="19.00">
    <ride from="1032777739#0" to="-1082634593" lines="taxi" />
  </person>
  <person id="p_39" depart="20.00">
    <ride from="-1011006249#1" to="514667745" lines="taxi" />
  </person>
  <person id="p_5038" depart="20.00">
    <ride from="254299142#0" to="-28572434#1" lines="taxi" />
  </person>
  <person id="p_7772" depart="20.00">
    <ride from="91181774#0" to="-717728150#1" lines="taxi" />
  </person>
  <person id="p_271" depart="21.00">
    <ride from="397116062#0" to="1193764512" lines="taxi" />
  </person>
  <person id="p_5794" depart="21.00">
    <ride from="88559691#2" to="-8916367#0" lines="taxi" />
  </person>
  <person id="p_3041" depart="22.00">
    <ride from="-1221519830" to="-224200959" lines="taxi" />
  </person>
  <person id="p_4327" depart="23.00">
    <ride from="-674189179" to="968937453#0" lines="taxi" />
  </person>
  <person id="p_7083" depart="23.00">
    <ride from="-254968959#0" to="-8920953" lines="taxi" />
  </person>
  <person id="p_7134" depart="25.00">
    <ride from="27570802#0" to="-1115676917" lines="taxi" />
  </person>
  <person id="p_434" depart="26.00">
    <ride from="1172193248#8" to="-468000213" lines="taxi" />
  </person>
  <person id="p_1393" depart="26.00">
    <ride from="-133856217#1" to="395803787" lines="taxi" />
  </person>
  <person id="p_3324" depart="26.00">
    <ride from="186398845" to="772972816" lines="taxi" />
  </person>
  <person id="p_7571" depart="26.00">
    <ride from="-204884397#1" to="254756520#0" lines="taxi" />
  </person>
  <person id="p_5542" depart="28.00">
    <ride from="736592136" to="406944764#0" lines="taxi" />
  </person>
  <person id="p_139" depart="29.00">
    <ride from="939368765" to="-8918163#3" lines="taxi" />
  </person>
  <person id="p_173" depart="29.00">
    <ride from="30757766" to="686250332#0" lines="taxi" />
  </person>
  <person id="p_2921" depart="30.00">
    <ride from="-680438018#1" to="364480068#0" lines="taxi" />
  </person>
  <person id="p_4532" depart="30.00">
    <ride from="-516940749#2" to="255178076#1" lines="taxi" />
  </person>
  <person id="p_5293" depart="30.00">
    <ride from="8917523#6" to="133733593#0" lines="taxi" />
  </person>
  <person id="p_1851" depart="31.00">
    <ride from="-514597916#1" to="306338107#2" lines="taxi" />
  </person>
  <person id="p_7711" depart="31.00">
    <ride from="681479565" to="-204967527#3" lines="taxi" />
  </person>
  <person id="p_1876" depart="32.00">
    <ride from="254758115#0" to="-399142440#5" lines="taxi" />
  </person>
  <person id="p_3980" depart="32.00">
    <ride from="514535080" to="468552082#0" lines="taxi" />
  </person>
  <person id="p_5874" depart="32.00">
    <ride from="28841121#0" to="-468133442#1" lines="taxi" />
  </person>
  <person id="p_6011" depart="32.00">
    <ride from="417101719#0" to="620728084" lines="taxi" />
  </person>
  <person id="p_7255" depart="32.00">
    <ride from="279611139" to="-24444959#5" lines="taxi" />
  </person>
  <person id="p_2259" depart="33.00">
    <ride from="514667745" to="27043624#0" lines="taxi" />
  </person>
  <person id="p_2374" depart="33.00">
    <ride from="721674320#1" to="674757885#0" lines="taxi" />
  </person>
  <person id="p_4260" depart="33.00">
    <ride from="8921605" to="-88572874#1" lines="taxi" />
  </person>
  <person id="p_6706" depart="33.00">
    <ride from="254756520#0" to="-1178379357#13" lines="taxi" />
  </person>
  <person id="p_466" depart="34.00">
    <ride from="24547827#0" to="27397919" lines="taxi" />
  </person>
  <person id="p_820" depart="34.00">
    <ride from="-919204679#1" to="-850242477#2" lines="taxi" />
  </person>
  <person id="p_3295" depart="34.00">
    <ride from="-1082634592" to="425516617#5" lines="taxi" />
  </person>
  <person id="p_745" depart="35.00">
    <ride from="-254971073#0" to="-1031915407" lines="taxi" />
  </person>
  <person id="p_1954" depart="35.00">
    <ride from="142961031#0" to="-674189179" lines="taxi" />
  </person>
  <person id="p_2298" depart="35.00">
    <ride from="87376682#0" to="1193764512" lines="taxi" />
  </person>
  <person id="p_2776" depart="35.00">
    <ride from="-683038356#3" to="91181768#2" lines="taxi" />
  </person>
  <person id="p_7298" depart="35.00">
    <ride from="28694275#1" to="-254466686#1" lines="taxi" />
  </person>
  <person id="p_234" depart="36.00">
    <ride from="257593329#0" to="1021093206" lines="taxi" />
  </person>
  <person id="p_2615" depart="36.00">
    <ride from="-148846999#0" to="143617587" lines="taxi" />
  </person>
  <person id="p_3656" depart="36.00">
    <ride from="256787755#3" to="-85644959#5" lines="taxi" />
  </person>
  <person id="p_4365" depart="36.00">
    <ride from="-254308553#1" to="-1031915407" lines="taxi" />
  </person>
  <person id="p_4653" depart="36.00">
    <ride from="397079284" to="8919205#0" lines="taxi" />
  </person>
  <person id="p_4730" depart="37.00">
    <ride from="-88572932#2" to="-224384057" lines="taxi" />
  </person>
  <person id="p_7880" depart="37.00">
    <ride from="-399883474" to="-88572932#0" lines="taxi" />
  </person>
  <person id="p_2253" depart="38.00">
    <ride from="514667745" to="440851938#4" lines="taxi" />
  </person>
  <person id="p_2564" depart="38.00">
    <ride from="-399156531#1" to="-8919659" lines="taxi" />
  </person>
  <person id="p_876" depart="39.00">
    <ride from="-162324928#0" to="968937453#0" lines="taxi" />
  </person>
  <person id="p_4369" depart="39.00">
    <ride from="-254308553#1" to="527857410#0" lines="taxi" />
  </person>
  <person id="p_5812" depart="39.00">
    <ride from="111560680#0" to="-717728150#1" lines="taxi" />
  </person>
  <person id="p_721" depart="40.00">
    <ride from="24547827#0" to="396957211#0" lines="taxi" />
  </person>
  <person id="p_1934" depart="41.00">
    <ride from="142961031#0" to="680783337#1" lines="taxi" />
  </person>
  <person id="p_705" depart="42.00">
    <ride from="-762951374#0" to="1081658227" lines="taxi" />
  </person>
  <person id="p_5682" depart="42.00">
    <ride from="-88597577#2" to="1125204814#0" lines="taxi" />
  </person>
  <person id="p_6127" depart="42.00">
    <ride from="283537380#0" to="1120503652" lines="taxi" />
  </person>
  <person id="p_445" depart="43.00">
    <ride from="162812824#3" to="43100047#1" lines="taxi" />
  </person>
  <person id="p_1127" depart="43.00">
    <ride from="-24335448#0" to="-120256351#2" lines="taxi" />
  </person>
  <person id="p_2810" depart="44.00">
    <ride from="-225854653#3" to="364480068#0" lines="taxi" />
  </person>
  <person id="p_4481" depart="45.00">
    <ride from="502795946#0" to="-468000213" lines="taxi" />
  </person>
  <person id="p_5025" depart="45.00">
    <ride from="254299142#0" to="-89812411#0" lines="taxi" />
  </person>
  <person id="p_5523" depart="45.00">
    <ride from="329607867#0" to="228354673#0" lines="taxi" />
  </person>
  <person id="p_7005" depart="45.00">
    <ride from="-204967524#2" to="449201857#0" lines="taxi" />
  </person>
  <person id="p_3024" depart="46.00">
    <ride from="-27028861#5" to="-204967526#2" lines="taxi" />
  </person>
  <person id="p_3750" depart="46.00">
    <ride from="8915117" to="30035754#0" lines="taxi" />
  </person>
  <person id="p_4784" depart="46.00">
    <ride from="-8918989#3" to="417099340#0" lines="taxi" />
  </person>
  <person id="p_5801" depart="46.00">
    <ride from="88559691#2" to="-224316526#0" lines="taxi" />
  </person>
  <person id="p_6593" depart="46.00">
    <ride from="27054209" to="673985189#0" lines="taxi" />
  </person>
  <person id="p_2880" depart="47.00">
    <ride from="48570001" to="706551788#0" lines="taxi" />
  </person>
  <person id="p_3204" depart="47.00">
    <ride from="512658274" to="-1108077480" lines="taxi" />
  </person>
  <person id="p_886" depart="49.00">
    <ride from="514580487#0" to="8917809#1" lines="taxi" />
  </person>
  <person id="p_1516" depart="49.00">
    <ride from="1032783932#0" to="493107462#0" lines="taxi" />
  </person>
  <person id="p_2906" depart="49.00">
    <ride from="-1203028547" to="32121433#1" lines="taxi" />
  </person>
  <person id="p_3853" depart="49.00">
    <ride from="88572943#0" to="-120257662" lines="taxi" />
  </person>
  <person id="p_5392" depart="49.00">
    <ride from="619535756#0" to="91181774#0" lines="taxi" />
  </person>
  <person id="p_1351" depart="50.00">
    <ride from="-112408723#3" to="254756525#0" lines="taxi" />
  </person>
  <person id="p_4384" depart="50.00">
    <ride from="-254308553#1" to="8915888#1" lines="taxi" />
  </person>
  <person id="p_5214" depart="50.00">
    <ride from="254758131#0" to="1110470601#0" lines="taxi" />
  </person>
  <person id="p_374" depart="51.00">
    <ride from="-254750822#3" to="-88572901#0" lines="taxi" />
  </person>
  <person id="p_1330" depart="51.00">
    <ride from="-254759917#0" to="8921645" lines="taxi" />
  </person>
  <person id="p_754" depart="52.00">
    <ride from="-254759973#3" to="99231463#0" lines="taxi" />
  </person>
  <person id="p_1248" depart="52.00">
    <ride from="306338107#1" to="1120512277#0" lines="taxi" />
  </person>
  <person id="p_2266" depart="52.00">
    <ride from="-85644919#2" to="-192552300#4" lines="taxi" />
  </person>
  <person id="p_3328" depart="52.00">
    <ride from="186398845" to="8917522#0" lines="taxi" />
  </person>
  <person id="p_3490" depart="52.00">
    <ride from="1021035218" to="254758114#6" lines="taxi" />
  </person>
  <person id="p_5137" depart="52.00">
    <ride from="769783926" to="944144235" lines="taxi" />
  </person>
  <person id="p_474" depart="53.00">
    <ride from="254759910#8" to="-133856217#3" lines="taxi" />
  </person>
  <person id="p_901" depart="53.00">
    <ride from="-417384957" to="-254466686#1" lines="taxi" />
  </person>
  <person id="p_5846" depart="53.00">
    <ride from="417400734#0" to="1125204814#0" lines="taxi" />
  </person>
  <person id="p_6597" depart="53.00">
    <ride from="27054209" to="1120512099#0" lines="taxi" />
  </person>
  <person id="p_6698" depart="53.00">
    <ride from="254756520#0" to="-1108077480" lines="taxi" />
  </person>
  <person id="p_7894" depart="53.00">
    <ride from="910361858" to="88572948#0" lines="taxi" />
  </person>
  <person id="p_2093" depart="54.00">
    <ride from="84733302#15" to="27054205#0" lines="taxi" />
  </person>
  <person id="p_3286" depart="54.00">
    <ride from="-1082634592" to="-88572874#1" lines="taxi" />
  </person>
  <person id="p_3823" depart="54.00">
    <ride from="24547813#2" to="769990214#0" lines="taxi" />
  </person>
  <person id="p_6292" depart="54.00">
    <ride from="680402692" to="1178379352#5" lines="taxi" />
  </person>
  <person id="p_2349" depart="55.00">
    <ride from="-85644919#8" to="88572948#0" lines="taxi" />
  </person>
  <person id="p_6131" depart="55.00">
    <ride from="-88559661" to="397250668#0" lines="taxi" />
  </person>
  <person id="p_3592" depart="56.00">
    <ride from="-27028828#1" to="-8920077#0" lines="taxi" />
  </person>
  <person id="p_783" depart="57.00">
    <ride from="-183198861#0" to="-254759931#3" lines="taxi" />
  </person>
  <person id="p_1668" depart="57.00">
    <ride from="-619535751#2" to="-1082634593" lines="taxi" />
  </person>
  <person id="p_1894" depart="57.00">
    <ride from="254758115#0" to="-449197187#1" lines="taxi" />
  </person>
  <person id="p_2472" depart="57.00">
    <ride from="527857388#0" to="-619535759" lines="taxi" />
  </person>
  <person id="p_7279" depart="57.00">
    <ride from="-255178103#3" to="-417103323#2" lines="taxi" />
  </person>
  <person id="p_3942" depart="58.00">
    <ride from="-468000213" to="397139125" lines="taxi" />
  </person>
  <person id="p_6818" depart="58.00">
    <ride from="-254984058#0" to="254448250" lines="taxi" />
  </person>
  <person id="p_3739" depart="59.00">
    <ride from="-1081658223#1" to="254971067#0" lines="taxi" />
  </person>
  <person id="p_172" depart="60.00">
    <ride from="30757766" to="91181774#0" lines="taxi" />
  </person>
  <person id="p_7725" depart="60.00">
    <ride from="1030276936#0" to="619979115" lines="taxi" />
  </person>
  <person id="p_2262" depart="61.00">
    <ride from="-133376114#5" to="-254466686#1" lines="taxi" />
  </person>
  <person id="p_3706" depart="61.00">
    <ride from="247966219#0" to="-1122268859" lines="taxi" />
  </person>
  <person id="p_5307" depart="61.00">
    <ride from="1112271467#0" to="-133781714" lines="taxi" />
  </person>
  <person id="p_140" depart="62.00">
    <ride from="939368765" to="84734271#0" lines="taxi" />
  </person>
  <person id="p_3457" depart="62.00">
    <ride from="802591082#2" to="981636498#0" lines="taxi" />
  </person>
  <person id="p_4878" depart="62.00">
    <ride from="133781730#5" to="254756525#0" lines="taxi" />
  </person>
  <person id="p_915" depart="63.00">
    <ride from="-891375311" to="255178154#1" lines="taxi" />
  </person>
  <person id="p_5032" depart="63.00">
    <ride from="254299142#0" to="-606336337" lines="taxi" />
  </person>
  <person id="p_7836" depart="63.00">
    <ride from="-28843496" to="27054205#0" lines="taxi" />
  </person>
  <person id="p_2089" depart="64.00">
    <ride from="84733302#15" to="-25821940" lines="taxi" />
  </person>
  <person id="p_2901" depart="64.00">
    <ride from="-1203028547" to="546029200#0" lines="taxi" />
  </person>
  <person id="p_1032" depart="65.00">
    <ride from="137815564" to="-29482569#5" lines="taxi" />
  </person>
  <person id="p_1050" depart="65.00">
    <ride from="254759969#2" to="859701761" lines="taxi" />
  </person>
  <person id="p_4222" depart="65.00">
    <ride from="1059508735" to="-88572932#0" lines="taxi" />
  </person>
  <person id="p_6467" depart="65.00">
    <ride from="408575054" to="88572948#0" lines="taxi" />
  </person>
  <person id="p_1510" depart="66.00">
    <ride from="1032783932#0" to="26943623#0" lines="taxi" />
  </person>
  <person id="p_4110" depart="66.00">
    <ride from="-1108077480" to="859701761" lines="taxi" />
  </person>
  <person id="p_6091" depart="66.00">
    <ride from="397140312#0" to="8915888#1" lines="taxi" />
  </person>
  <person id="p_7885" depart="66.00">
    <ride from="-399883474" to="397145255#2" lines="taxi" />
  </person>
  <person id="p_40" depart="67.00">
    <ride from="-1011006249#1" to="1110470601#0" lines="taxi" />
  </person>
  <person id="p_1185" depart="67.00">
    <ride from="776651707#1" to="-88572874#1" lines="taxi" />
  </person>
  <person id="p_4271" depart="67.00">
    <ride from="-682475681#2" to="673985189#0" lines="taxi" />
  </person>
  <person id="p_4592" depart="69.00">
    <ride from="215524529" to="24335460#2" lines="taxi" />
  </person>
  <person id="p_4613" depart="69.00">
    <ride from="-468000213" to="406946350#0" lines="taxi" />
  </person>
  <person id="p_3663" depart="70.00">
    <ride from="1124361285#0" to="519082485" lines="taxi" />
  </person>
  <person id="p_3652" depart="71.00">
    <ride from="256787755#3" to="87554970" lines="taxi" />
  </person>
  <person id="p_6885" depart="71.00">
    <ride from="254971070#4" to="32121433#1" lines="taxi" />
  </person>
  <person id="p_6965" depart="71.00">
    <ride from="279611139" to="8918947#0" lines="taxi" />
  </person>
  <person id="p_180" depart="72.00">
    <ride from="-8916675#3" to="91181774#0" lines="taxi" />
  </person>
  <person id="p_6227" depart="73.00">
    <ride from="E19" to="766798666#0" lines="taxi" />
  </person>
  <person id="p_343" depart="74.00">
    <ride from="-8919034#6" to="-850242477#2" lines="taxi" />
  </person>
  <person id="p_2404" depart="74.00">
    <ride from="721674320#1" to="-8919699" lines="taxi" />
  </person>
  <person id="p_4568" depart="74.00">
    <ride from="-375747145" to="742257629" lines="taxi" />
  </person>
  <person id="p_4737" depart="74.00">
    <ride from="-88572932#2" to="225847514#0" lines="taxi" />
  </person>
  <person id="p_7499" depart="74.00">
    <ride from="-682475681#1" to="397107430" lines="taxi" />
  </person>
  <person id="p_1150" depart="76.00">
    <ride from="776651707#1" to="546029200#0" lines="taxi" />
  </person>
  <person id="p_359" depart="78.00">
    <ride from="397097601#1" to="224316521#0" lines="taxi" />
  </person>
  <person id="p_903" depart="78.00">
    <ride from="-891375311" to="27397919" lines="taxi" />
  </person>
  <person id="p_4404" depart="78.00">
    <ride from="225853134#0" to="-286674807#1" lines="taxi" />
  </person>
  <person id="p_4475" depart="79.00">
    <ride from="502795946#0" to="88572948#0" lines="taxi" />
  </person>
  <person id="p_6654" depart="79.00">
    <ride from="359898521#0" to="-396967014#1" lines="taxi" />
  </person>
  <person id="p_7513" depart="80.00">
    <ride from="141688972#0" to="26943623#0" lines="taxi" />
  </person>
  <person id="p_5343" depart="81.00">
    <ride from="1032777739#0" to="184956229#0" lines="taxi" />
  </person>
  <person id="p_6687" depart="81.00">
    <ride from="27054213#0" to="-514524723#1" lines="taxi" />
  </person>
  <person id="p_909" depart="82.00">
    <ride from="-891375311" to="996695179#4" lines="taxi" />
  </person>
  <person id="p_6891" depart="82.00">
    <ride from="359898620#0" to="88572948#0" lines="taxi" />
  </person>
  <person id="p_7216" depart="82.00">
    <ride from="30831814" to="396950803" lines="taxi" />
  </person>
  <person id="p_3330" depart="83.00">
    <ride from="-1082635411#0" to="-254299112#6" lines="taxi" />
  </person>
  <person id="p_4391" depart="83.00">
    <ride from="527857425#2" to="519082485" lines="taxi" />
  </person>
  <person id="p_5317" depart="83.00">
    <ride from="1112271469" to="27029246#0" lines="taxi" />
  </person>
  <person id="p_6220" depart="83.00">
    <ride from="E19" to="-254982300#0" lines="taxi" />
  </person>
  <person id="p_1079" depart="85.00">
    <ride from="1188700482#0" to="158468715#0" lines="taxi" />
  </person>
  <person id="p_1744" depart="88.00">
    <ride from="968937453#0" to="254759915#4" lines="taxi" />
  </person>
  <person id="p_6956" depart="88.00">
    <ride from="279611139" to="88572914#0" lines="taxi" />
  </person>
  <person id="p_2613" depart="89.00">
    <ride from="-148846999#0" to="394443192#0" lines="taxi" />
  </person>
  <person id="p_5723" depart="89.00">
    <ride from="88572948#0" to="397153595#0" lines="taxi" />
  </person>
  <person id="p_5942" depart="89.00">
    <ride from="-406548396#1" to="-120256351#2" lines="taxi" />
  </person>
  <person id="p_7270" depart="89.00">
    <ride from="497579295" to="-681699527" lines="taxi" />
  </person>
  <person id="p_2133" depart="90.00">
    <ride from="425516617#5" to="183198859#1" lines="taxi" />
  </person>
  <person id="p_3650" depart="90.00">
    <ride from="256787755#3" to="1081219362#0" lines="taxi" />
  </person>
  <person id="p_4489" depart="90.00">
    <ride from="502795946#0" to="254758114#6" lines="taxi" />
  </person>
  <person id="p_616" depart="91.00">
    <ride from="-514456306#1" to="-674189179" lines="taxi" />
  </person>
  <person id="p_2381" depart="91.00">
    <ride from="721674320#1" to="43100047#1" lines="taxi" />
  </person>
  <person id="p_6585" depart="91.00">
    <ride from="8916867" to="-233201263#1" lines="taxi" />
  </person>
  <person id="p_853" depart="92.00">
    <ride from="8918808#1" to="8920980#0" lines="taxi" />
  </person>
  <person id="p_2864" depart="92.00">
    <ride from="-89802444#2" to="514650998#2" lines="taxi" />
  </person>
  <person id="p_727" depart="93.00">
    <ride from="24547827#0" to="527857410#0" lines="taxi" />
  </person>
  <person id="p_966" depart="93.00">
    <ride from="400907148" to="48211381" lines="taxi" />
  </person>
  <person id="p_1788" depart="94.00">
    <ride from="968937453#0" to="8921645" lines="taxi" />
  </person>
  <person id="p_2550" depart="94.00">
    <ride from="406580281#0" to="1125204814#0" lines="taxi" />
  </person>
  <person id="p_5221" depart="94.00">
    <ride from="254758132#0" to="-31780013#0" lines="taxi" />
  </person>
  <person id="p_5615" depart="94.00">
    <ride from="968937451#0" to="-417087485#1" lines="taxi" />
  </person>
  <person id="p_109" depart="95.00">
    <ride from="-255178101#1" to="8921645" lines="taxi" />
  </person>
  <person id="p_242" depart="95.00">
    <ride from="-8917166#6" to="191297197#3" lines="taxi" />
  </person>
  <person id="p_1576" depart="95.00">
    <ride from="398675749#0" to="1076419799#0" lines="taxi" />
  </person>
  <person id="p_1852" depart="95.00">
    <ride from="-514597916#1" to="-254466686#1" lines="taxi" />
  </person>
  <person id="p_2178" depart="95.00">
    <ride from="258613676#0" to="397140312#0" lines="taxi" />
  </person>
  <person id="p_613" depart="97.00">
    <ride from="-514456306#1" to="-25821940" lines="taxi" />
  </person>
  <person id="p_1498" depart="97.00">
    <ride from="-31148622#0" to="29023785#0" lines="taxi" />
  </person>
  <person id="p_2968" depart="99.00">
    <ride from="27028861#4" to="34128773#0" lines="taxi" />
  </person>
  <person id="p_4847" depart="99.00">
    <ride from="27400639#0" to="1110470601#0" lines="taxi" />
  </person>
  <person id="p_7213" depart="99.00">
    <ride from="30831814" to="-29482569#5" lines="taxi" />
  </person>
  <person id="p_4642" depart="101.00">
    <ride from="1117317597" to="8919173#17" lines="taxi" />
  </person>
  <person id="p_6234" depart="102.00">
    <ride from="397153595#0" to="286003244#0" lines="taxi" />
  </person>
  <person id="p_7006" depart="102.00">
    <ride from="-204967524#2" to="674757885#0" lines="taxi" />
  </person>
  <person id="p_7170" depart="102.00">
    <ride from="-143666206#2" to="1021093206" lines="taxi" />
  </person>
  <person id="p_3130" depart="103.00">
    <ride from="-419755793" to="1125204814#0" lines="taxi" />
  </person>
  <person id="p_6086" depart="103.00">
    <ride from="397140312#0" to="254756525#0" lines="taxi" />
  </person>
  <person id="p_3969" depart="104.00">
    <ride from="-142972026#2" to="-8920402#3" lines="taxi" />
  </person>
  <person id="p_4479" depart="104.00">
    <ride from="502795946#0" to="26943461" lines="taxi" />
  </person>
  <person id="p_1751" depart="105.00">
    <ride from="396976080#0" to="329596844#2" lines="taxi" />
  </person>
  <person id="p_3113" depart="106.00">
    <ride from="-255170247" to="133781708" lines="taxi" />
  </person>
  <person id="p_3881" depart="106.00">
    <ride from="88572943#0" to="-919204678#1" lines="taxi" />
  </person>
  <person id="p_41" depart="107.00">
    <ride from="-8916286#8" to="247966218#4" lines="taxi" />
  </person>
  <person id="p_1385" depart="107.00">
    <ride from="-133781712" to="262943781#0" lines="taxi" />
  </person>
  <person id="p_3455" depart="107.00">
    <ride from="802591082#2" to="8921645" lines="taxi" />
  </person>
  <person id="p_7746" depart="107.00">
    <ride from="620169771#0" to="191297197#3" lines="taxi" />
  </person>
  <person id="p_2726" depart="108.00">
    <ride from="-133743901#0" to="1188700482#0" lines="taxi" />
  </person>
  <person id="p_4837" depart="109.00">
    <ride from="-24335468#0" to="396950805" lines="taxi" />
  </person>
  <person id="p_6831" depart="111.00">
    <ride from="-28231602#2" to="-254759929" lines="taxi" />
  </person>
  <person id="p_6984" depart="111.00">
    <ride from="279611139" to="276338275" lines="taxi" />
  </person>
  <person id="p_7183" depart="111.00">
    <ride from="-143666206#2" to="1124361285#0" lines="taxi" />
  </person>
  <person id="p_921" depart="112.00">
    <ride from="-28575530#3" to="406944767#0" lines="taxi" />
  </person>
  <person id="p_3924" depart="112.00">
    <ride from="-112408723#3" to="468552082#0" lines="taxi" />
  </person>
  <person id="p_4324" depart="112.00">
    <ride from="-674189179" to="-E38" lines="taxi" />
  </person>
  <person id="p_1825" depart="113.00">
    <ride from="-166624527" to="26944132#0" lines="taxi" />
  </person>
  <person id="p_3159" depart="114.00">
    <ride from="8917736" to="396976080#9" lines="taxi" />
  </person>
  <person id="p_3469" depart="114.00">
    <ride from="397100591#0" to="287658818" lines="taxi" />
  </person>
  <person id="p_5703" depart="114.00">
    <ride from="1051004023#0" to="-417101702#1" lines="taxi" />
  </person>