<?xml version='1.0' encoding='UTF-8'?>
<routes>
  <trip id="6704" depart="0" from="-505761791#1" to="27434420#0" arrival="3558" />
  <trip id="6610" depart="0" from="403152783#0" to="-706542863#0" arrival="3565" />
  <trip id="6656" depart="0" from="527829938#0" to="27145835#1" arrival="3541" />
  <trip id="6658" depart="0" from="143666212#0" to="28952785#4" arrival="3544" />
  <trip id="6591" depart="0" from="619535770#0" to="1052930665" arrival="3576" />
  <trip id="6586" depart="0" from="-254756527#1" to="397138671" arrival="3541" />
  <trip id="6564" depart="0" from="-408610939" to="-706534245" arrival="3544" />
  <trip id="8719" depart="0" from="-8918969#0" to="-8918969#0" arrival="3557" />
  <trip id="6646" depart="0" from="286672833#0" to="225847529#0" arrival="3593" />
  <trip id="6729" depart="0" from="27434420#0" to="527857404#0" arrival="3556" />
  <trip id="7219" depart="0" from="-437558597#1" to="155373677#0" arrival="3542" />
  <trip id="7226" depart="0" from="192552507#0" to="51392402#0" arrival="3597" />
  <trip id="6537" depart="0" from="-505591745#1" to="30030485#1" arrival="3589" />
  <trip id="5731" depart="0" from="-8916562" to="254396713#0" arrival="3574" />
  <trip id="8705" depart="0" from="228196396#0" to="254299115#0" arrival="3597" />
  <trip id="8771" depart="1" from="-929718664" to="159766611" arrival="3598" />
  <trip id="6682" depart="1" from="-397107863" to="527857410#0" arrival="3542" />
  <trip id="8701" depart="1" from="255178137#1" to="397271281" arrival="3599" />
  <trip id="6652" depart="1" from="225516712#2" to="-254750814#0" arrival="3593" />
  <trip id="6725" depart="1" from="-254299125#2" to="8921086#3" arrival="3574" />
  <trip id="6655" depart="1" from="502795943#0" to="527829940#0" arrival="3544" />
  <trip id="8960" depart="1" from="-254984071#1" to="254984064#1" arrival="3599" />
  <trip id="6608" depart="1" from="-254299130#2" to="28841117#0" arrival="3586" />
  <trip id="6605" depart="1" from="1164067021" to="513694377" arrival="3589" />
  <trip id="5862" depart="1" from="406582610" to="-8917166#16" arrival="3598" />
  <trip id="6568" depart="1" from="-254299112#6" to="286471135" arrival="3588" />
  <trip id="6627" depart="1" from="-225516712#2" to="254758130#0" arrival="3551" />
  <trip id="6525" depart="1" from="28841120#0" to="254299130#3" arrival="3584" />
  <trip id="6621" depart="2" from="-514452166" to="155373677#3" arrival="3506" />
  <trip id="2065" depart="2" from="396987356#0" to="52432938#0" arrival="3578" />
  <trip id="8956" depart="2" from="417384964" to="417384996" arrival="3599" />
  <trip id="8948" depart="2" from="-8917061#1" to="255178116#7" arrival="3594" />
  <trip id="7260" depart="2" from="-391862870#2" to="-391862870#2" arrival="3540" />
  <trip id="6572" depart="2" from="-E1" to="417166168#0" arrival="3556" />
  <trip id="6576" depart="2" from="417396772" to="1024537343" arrival="3548" />
  <trip id="6526" depart="2" from="-254299130#3" to="464936238" arrival="3544" />
  <trip id="5741" depart="2" from="396966586#0" to="-720025846#1" arrival="3585" />
  <trip id="6722" depart="2" from="417087664#0" to="-8920175#0" arrival="3566" />
  <trip id="6721" depart="2" from="-417284150#2" to="-437558597#1" arrival="3574" />
  <trip id="6577" depart="2" from="619535770#0" to="1052930665" arrival="3574" />
  <trip id="5759" depart="2" from="256400244#0" to="-254297760" arrival="3599" />
  <trip id="6505" depart="2" from="397146715#3" to="254299130#4" arrival="3569" />
  <trip id="6705" depart="2" from="-28715669" to="-505761791#1" arrival="3557" />
  <trip id="6503" depart="2" from="619535770#0" to="255178076#0" arrival="3556" />
  <trip id="6688" depart="2" from="86336709#2" to="513875408#0" arrival="3587" />
  <trip id="6617" depart="2" from="8921059#0" to="502795946#0" arrival="3545" />
  <trip id="6618" depart="2" from="-505591745#1" to="1047613713" arrival="3564" />
  <trip id="6518" depart="2" from="255351736#6" to="-417353053" arrival="3558" />
  <trip id="8876" depart="2" from="133743904" to="133733597" arrival="3599" />
  <trip id="6717" depart="2" from="502795544#0" to="771447982#2" arrival="3572" />
  <trip id="2022" depart="2" from="254299115#0" to="677165867" arrival="3598" />
  <trip id="8841" depart="2" from="-48570006#0" to="27043786#0" arrival="3064" />
  <trip id="2004" depart="2" from="396987356#0" to="532065713#0" arrival="3599" />
  <trip id="2026" depart="2" from="283530828#0" to="677165867" arrival="3598" />
  <trip id="8655" depart="3" from="224373744#0" to="417087695#0" arrival="3553" />
  <trip id="8733" depart="3" from="513726809#0" to="283529412#0" arrival="3578" />
  <trip id="6660" depart="3" from="514577069#0" to="143666212#0" arrival="3554" />
  <trip id="8964" depart="3" from="27028707" to="617276404#0" arrival="3597" />
  <trip id="6613" depart="3" from="396961260#0" to="513875408#0" arrival="3585" />
  <trip id="6589" depart="3" from="619568401" to="-425516678#2" arrival="3583" />
  <trip id="6582" depart="3" from="398675756#0" to="-120257662" arrival="3548" />
  <trip id="8810" depart="3" from="679545524" to="276338269" arrival="3551" />
  <trip id="6506" depart="3" from="-255178156" to="619535770#0" arrival="3546" />
  <trip id="8824" depart="3" from="396957212#0" to="204964839#0" arrival="3510" />
  <trip id="6513" depart="3" from="-397146714#1" to="-505591745#1" arrival="3580" />
  <trip id="6551" depart="3" from="948053614" to="-397146710" arrival="3556" />
  <trip id="6606" depart="3" from="513694378" to="619535770#0" arrival="3563" />
  <trip id="6727" depart="3" from="527829973#0" to="-505591745#1" arrival="3579" />
  <trip id="6562" depart="3" from="143617584#0" to="619568401" arrival="3589" />
  <trip id="2040" depart="4" from="8916586#0" to="283526875#0" arrival="3599" />
  <trip id="6614" depart="4" from="158804430#0" to="144489134#0" arrival="3587" />
  <trip id="6642" depart="4" from="396959974" to="930588346#7" arrival="3599" />
  <trip id="8929" depart="4" from="503825192" to="157018885#2" arrival="3596" />
  <trip id="6597" depart="4" from="99278918#0" to="513701212#0" arrival="3579" />
  <trip id="6691" depart="4" from="-286434721#0" to="47172460#0" arrival="3532" />
  <trip id="6571" depart="4" from="144489134#3" to="158804446" arrival="3580" />
  <trip id="8925" depart="4" from="8922863" to="-254984071#1" arrival="3541" />
  <trip id="6547" depart="4" from="364480068#0" to="254396726" arrival="3548" />
  <trip id="8519" depart="4" from="8916881" to="-196816082" arrival="3567" />
  <trip id="8919" depart="4" from="399138121#7" to="-414156928#2" arrival="3541" />
  <trip id="8511" depart="4" from="1060461424" to="8916841" arrival="3557" />
  <trip id="8717" depart="4" from="283530495#0" to="224373753#0" arrival="3574" />
  <trip id="8656" depart="4" from="107801951#0" to="8920953" arrival="3586" />
  <trip id="6585" depart="4" from="88597563#0" to="396950822" arrival="3571" />
  <trip id="2030" depart="4" from="8916586#0" to="283526875#0" arrival="3599" />
  <trip id="8872" depart="4" from="681971885#0" to="224373744#0" arrival="3588" />
  <trip id="2035" depart="4" from="-224384019#2" to="-224373759#1" arrival="3595" />
  <trip id="8716" depart="4" from="255351742#0" to="283526869#0" arrival="3583" />
  <trip id="2036" depart="4" from="-224384019#2" to="-224373759#1" arrival="3595" />
  <trip id="8632" depart="4" from="680402692" to="254299115#0" arrival="3541" />
  <trip id="6726" depart="4" from="-228196396#1" to="158804432" arrival="3541" />
  <trip id="7240" depart="4" from="-286434721#0" to="680402692" arrival="3597" />
  <trip id="8635" depart="5" from="8918969#0" to="-48570006#0" arrival="3551" />
  <trip id="8752" depart="5" from="27396665#0" to="255351740" arrival="3596" />
  <trip id="8855" depart="5" from="224373744#0" to="934187385" arrival="3548" />
  <trip id="8642" depart="5" from="E39.13" to="224373744#0" arrival="3553" />
  <trip id="6541" depart="5" from="396947820" to="256400244#0" arrival="3548" />
  <trip id="6544" depart="5" from="474100981#1" to="364480068#0" arrival="3567" />
  <trip id="6533" depart="5" from="254758131#2" to="158468955" arrival="3548" />
  <trip id="8773" depart="5" from="224200968#0" to="28572356" arrival="3597" />
  <trip id="8827" depart="5" from="48570005#1" to="619568423#0" arrival="3582" />
  <trip id="5761" depart="5" from="225516718#5" to="399178699#0" arrival="3553" />
  <trip id="6500" depart="5" from="E34" to="505806740" arrival="3542" />
  <trip id="1544" depart="5" from="678038618" to="678038618" arrival="3229" />
  <trip id="6596" depart="5" from="948053614" to="1021093206" arrival="3582" />
  <trip id="8834" depart="5" from="-228186482#1" to="-E14" arrival="3560" />
  <trip id="2054" depart="6" from="-224373759#1" to="-224384019#2" arrival="3595" />
  <trip id="8715" depart="6" from="254601291" to="514693611#0" arrival="3565" />
  <trip id="6583" depart="6" from="254297756" to="158468960#0" arrival="3570" />
  <trip id="8941" depart="6" from="225847513#0" to="-69598564" arrival="3556" />
  <trip id="8966" depart="6" from="-E1" to="619535678" arrival="3551" />
  <trip id="6522" depart="6" from="158804434#0" to="980893267#2" arrival="3590" />
  <trip id="6599" depart="6" from="513704711" to="474100981#0" arrival="3548" />
  <trip id="8886" depart="6" from="619590730#0" to="254299115#0" arrival="3598" />
  <trip id="6549" depart="6" from="474100981#0" to="619979116" arrival="3524" />
  <trip id="7279" depart="6" from="-285975137#1" to="680402692" arrival="3597" />
  <trip id="6536" depart="6" from="980893267#0" to="23848418#0" arrival="3564" />
  <trip id="6543" depart="6" from="396950805" to="E14" arrival="3597" />
  <trip id="2018" depart="6" from="-224373759#1" to="-224384019#2" arrival="3596" />
  <trip id="6529" depart="6" from="254453308#0" to="84654229#0" arrival="3548" />
  <trip id="8887" depart="7" from="406944760" to="397125830#0" arrival="3591" />
  <trip id="6510" depart="7" from="23880808" to="396959349#0" arrival="3536" />
  <trip id="7238" depart="7" from="106963928#0" to="88572914#3" arrival="3596" />
  <trip id="2034" depart="7" from="26786644#0" to="396985372#0" arrival="3597" />
  <trip id="8801" depart="7" from="396966586#0" to="26786641#0" arrival="3592" />
  <trip id="5868" depart="7" from="254756523" to="396945235#0" arrival="3577" />
  <trip id="6590" depart="7" from="437559564#1" to="396973793" arrival="3498" />
  <trip id="6534" depart="7" from="225806036" to="-44670365" arrival="3550" />
  <trip id="8888" depart="7" from="-397138005#1" to="-254299130#4" arrival="3591" />
  <trip id="6683" depart="7" from="-417962857" to="225516712#2" arrival="3542" />
  <trip id="6540" depart="7" from="143617587" to="-28575530#5" arrival="3599" />
  <trip id="8883" depart="7" from="23925325" to="-254299130#5" arrival="3591" />
  <trip id="2056" depart="7" from="26786644#0" to="396985372#0" arrival="3598" />
  <trip id="6530" depart="7" from="417087426" to="403877660#0" arrival="3578" />
  <trip id="6528" depart="7" from="-681402367" to="-E14" arrival="3552" />
  <trip id="6517" depart="7" from="396945626" to="86336712#0" arrival="3583" />
  <trip id="6516" depart="8" from="143617587" to="286265327#8" arrival="3545" />
  <trip id="6515" depart="8" from="400907144" to="-256400251#2" arrival="3559" />
  <trip id="6573" depart="8" from="-202317711#2" to="930588346#7" arrival="3562" />
  <trip id="6565" depart="8" from="397140734#0" to="8922884#1" arrival="3560" />
  <trip id="6548" depart="8" from="417979723" to="225806039#1" arrival="3573" />
  <trip id="6600" depart="8" from="256400244#0" to="797673526#4" arrival="3576" />
  <trip id="8804" depart="8" from="175507524#0" to="52721875#3" arrival="3576" />
  <trip id="8611" depart="8" from="403880755#0" to="8917043#6" arrival="3590" />
  <trip id="6578" depart="8" from="403877660#0" to="-225806054" arrival="3580" />
  <trip id="6651" depart="8" from="158804448" to="-228196396#1" arrival="3585" />
  <trip id="8897" depart="8" from="-27092632#1" to="679788132#1" arrival="3574" />
  <trip id="5836" depart="8" from="108389186#2" to="-680955161#1" arrival="3580" />
  <trip id="6625" depart="8" from="1011006249#2" to="88572914#0" arrival="3592" />
  <trip id="6588" depart="8" from="88597563#0" to="8918633" arrival="3549" />
  <trip id="5877" depart="8" from="425516617#6" to="-619535706#0" arrival="3581" />
  <trip id="6594" depart="8" from="-681402367" to="88597563#0" arrival="3549" />
  <trip id="6692" depart="8" from="-505591745#1" to="-417284150#2" arrival="3596" />
  <trip id="8780" depart="8" from="475253863" to="225840346" arrival="3595" />
  <trip id="8626" depart="9" from="255351749#0" to="311430145#0" arrival="3564" />
  <trip id="8867" depart="9" from="27044189#1" to="619590729" arrival="3555" />
  <trip id="8875" depart="9" from="619568427" to="-680243317" arrival="3580" />
  <trip id="8884" depart="9" from="-680243317" to="108194449#14" arrival="3548" />
  <trip id="8830" depart="9" from="679788132#1" to="27092632#0" arrival="3580" />
  <trip id="8704" depart="9" from="619590729" to="255351715#0" arrival="3563" />
  <trip id="8645" depart="9" from="-255178159#1" to="-1208130546#9" arrival="3549" />
  <trip id="8637" depart="9" from="8915454" to="225854641" arrival="3590" />
  <trip id="8737" depart="9" from="-133743898#0" to="619590729" arrival="3563" />
  <trip id="8890" depart="9" from="-255178140#0" to="8918969#0" arrival="3553" />
  <trip id="7246" depart="10" from="-88597577#1" to="-437558597#1" arrival="3598" />
  <trip id="8910" depart="10" from="-254396709#2" to="1041357578#0" arrival="3596" />
  <trip id="8758" depart="10" from="-225847506" to="-8916338#1" arrival="3547" />
  <trip id="6689" depart="10" from="939368765" to="E19" arrival="3595" />
  <trip id="6687" depart="10" from="-328876706#0" to="8918853" arrival="3587" />
  <trip id="8747" depart="10" from="23959798#2" to="681660474#0" arrival="3566" />
  <trip id="8899" depart="10" from="619568411#1" to="255178074#3" arrival="3596" />
  <trip id="8722" depart="10" from="158468970#0" to="619568427" arrival="3584" />
  <trip id="8904" depart="10" from="417087426" to="503825192" arrival="3596" />
  <trip id="8931" depart="10" from="37555378#0" to="255178116#5" arrival="3586" />
  <trip id="5788" depart="10" from="-8917284#0" to="286003784" arrival="3547" />
  <trip id="5816" depart="10" from="461084153#6" to="514524723#1" arrival="3562" />
  <trip id="5830" depart="10" from="254756517#0" to="158804438" arrival="3576" />
  <trip id="5844" depart="10" from="-263108751#11" to="425516617#11" arrival="3588" />
  <trip id="5848" depart="10" from="254756525#0" to="-26940502#12" arrival="3588" />
  <trip id="5852" depart="10" from="-719449214#1" to="263108751#0" arrival="3594" />
  <trip id="6512" depart="10" from="8917453" to="-681402367" arrival="3562" />
  <trip id="5773" depart="10" from="254756517#0" to="-8917534#0" arrival="3556" />
  <trip id="6545" depart="10" from="-930588346#4" to="364480068#0" arrival="3597" />
  <trip id="5758" depart="11" from="-240738468#1" to="734004334#0" arrival="3562" />
  <trip id="5754" depart="11" from="254971054#1" to="397077537" arrival="3582" />
  <trip id="5760" depart="11" from="27028349#0" to="254971054#1" arrival="3588" />
  <trip id="5782" depart="11" from="26940502#18" to="254756517#0" arrival="3590" />
  <trip id="2037" depart="11" from="437537914#0" to="283523310#0" arrival="3594" />
  <trip id="8604" depart="11" from="120256351#0" to="515583838#0" arrival="3590" />
  <trip id="5794" depart="11" from="283529756#0" to="713758737#0" arrival="3540" />
  <trip id="5882" depart="11" from="26940502#8" to="254756517#0" arrival="3556" />
  <trip id="5768" depart="11" from="-225516694" to="-27028350" arrival="3575" />
  <trip id="5878" depart="11" from="681012525#0" to="396985370#0" arrival="3562" />
  <trip id="5838" depart="12" from="680783343#0" to="225516710" arrival="3572" />
  <trip id="7273" depart="12" from="-391862870#2" to="-225847529#1" arrival="3555" />
  <trip id="5846" depart="12" from="-255178054#0" to="225516710" arrival="3596" />
  <trip id="2059" depart="12" from="-27028350" to="676714193#0" arrival="3534" />
  <trip id="2052" depart="12" from="676714194#0" to="-142947251#1" arrival="3530" />
  <trip id="2043" depart="12" from="437537914#0" to="283523310#0" arrival="3594" />
  <trip id="8891" depart="12" from="-27041779#1" to="397152177#0" arrival="3580" />
  <trip id="8651" depart="12" from="772972816" to="397115305" arrival="3549" />
  <trip id="8610" depart="12" from="255170272" to="-619568421" arrival="3578" />
  <trip id="2008" depart="12" from="705655282#0" to="-27145608#2" arrival="3573" />
  <trip id="5771" depart="12" from="619535758" to="514681344#0" arrival="3560" />
  <trip id="7218" depart="12" from="417284150#0" to="-425516678#9" arrival="3593" />
  <trip id="6638" depart="12" from="-1020490223#2" to="514614748#0" arrival="3596" />
  <trip id="7232" depart="13" from="-391862870#2" to="24335439#1" arrival="3550" />
  <trip id="6728" depart="13" from="110365012#3" to="-706542863#0" arrival="3552" />
  <trip id="5866" depart="13" from="225516710" to="680783343#0" arrival="3554" />
  <trip id="8934" depart="13" from="619535678" to="-255178116#5" arrival="3587" />
  <trip id="8505" depart="13" from="255178074#1" to="619568411#1" arrival="3551" />
  <trip id="2006" depart="13" from="-678038624#1" to="397138671" arrival="3578" />
  <trip id="6584" depart="13" from="948053614" to="513704346#0" arrival="3551" />
  <trip id="2061" depart="13" from="705655282#0" to="676714194#0" arrival="3566" />
  <trip id="7222" depart="14" from="-254984058#1" to="-770016877#1" arrival="3574" />
  <trip id="7216" depart="14" from="-30029708#1" to="417166168#0" arrival="3558" />
  <trip id="7211" depart="14" from="-681183503" to="721044168#1" arrival="3554" />
  <trip id="7244" depart="14" from="-770016877#1" to="167952611" arrival="3551" />
  <trip id="5735" depart="14" from="-505747573#2" to="26929832#2" arrival="3584" />
  <trip id="7267" depart="14" from="-254297750#1" to="-397146709" arrival="3554" />
  <trip id="8889" depart="14" from="397152177#0" to="224373761" arrival="3591" />
  <trip id="8894" depart="14" from="397152177#0" to="-224373760#5" arrival="3534" />
  <trip id="7249" depart="14" from="167952611" to="-111550911" arrival="3554" />
  <trip id="7284" depart="14" from="981636498#0" to="30029866#0" arrival="3554" />
  <trip id="8503" depart="14" from="403877660#0" to="437935567#0" arrival="3552" />
  <trip id="6666" depart="15" from="86334994#0" to="286434721#7" arrival="3598" />
  <trip id="7213" depart="15" from="-391862870#2" to="-206629822" arrival="3555" />
  <trip id="6598" depart="15" from="437533750#0" to="513704174#0" arrival="3553" />
  <trip id="8900" depart="15" from="120256351#0" to="254299130#6" arrival="3590" />
  <trip id="8892" depart="15" from="24487862#0" to="396957151#0" arrival="3552" />
  <trip id="8649" depart="15" from="619590730#0" to="396985370#0" arrival="3552" />
  <trip id="6679" depart="16" from="619568405#0" to="28575463#0" arrival="3574" />
  <trip id="2023" depart="16" from="566870076#5" to="705655282#0" arrival="3554" />
  <trip id="5800" depart="16" from="30029703#4" to="397146715#0" arrival="3577" />
  <trip id="6664" depart="16" from="88572914#3" to="214514829" arrival="3596" />
  <trip id="1466" depart="16" from="-682768769" to="8919908#2" arrival="3553" />
  <trip id="8762" depart="16" from="619535678" to="-27652378#1" arrival="3588" />
  <trip id="6703" depart="16" from="513875408#0" to="396959338" arrival="3586" />
  <trip id="2010" depart="16" from="8919908#2" to="-680438018#1" arrival="3568" />
  <trip id="2038" depart="16" from="-680438018#1" to="-682768769" arrival="2524" />
  <trip id="6561" depart="16" from="417087695#0" to="-437551082#1" arrival="3546" />
  <trip id="2028" depart="17" from="396983464#0" to="396957212#0" arrival="3595" />
  <trip id="6695" depart="17" from="-706542863#0" to="396950804" arrival="3587" />
  <trip id="8873" depart="17" from="948053614" to="948053614" arrival="3554" />
  <trip id="8608" depart="17" from="23884749" to="204884397#0" arrival="3554" />
  <trip id="2068" depart="17" from="24487862#0" to="24280144#0" arrival="3595" />
  <trip id="7236" depart="17" from="-391862870#2" to="225847529#0" arrival="3592" />
  <trip id="8863" depart="17" from="254299115#0" to="120256351#0" arrival="3591" />
  <trip id="8939" depart="17" from="-681758074" to="514611115" arrival="3596" />
  <trip id="6697" depart="17" from="514442926" to="-437558597#1" arrival="3595" />
  <trip id="8723" depart="18" from="619568423#0" to="-152906274" arrival="3555" />
  <trip id="5884" depart="18" from="-254297760" to="364480068#0" arrival="3566" />
  <trip id="8864" depart="18" from="1215827892" to="8916586#0" arrival="3577" />
  <trip id="8813" depart="18" from="512038661" to="513595718" arrival="3591" />
  <trip id="6662" depart="18" from="397140735#0" to="217622185#0" arrival="3555" />
  <trip id="7203" depart="18" from="-391862870#2" to="414948594#0" arrival="3555" />
  <trip id="8838" depart="19" from="-183198770" to="396985434" arrival="3578" />
  <trip id="8764" depart="19" from="8922863" to="-929718664" arrival="3599" />
  <trip id="8743" depart="19" from="-129381989#0" to="364480068#0" arrival="3578" />
  <trip id="8914" depart="19" from="-681758074" to="286265337#0" arrival="3588" />
  <trip id="8509" depart="19" from="-766805263" to="8918969#0" arrival="3565" />
  <trip id="6719" depart="20" from="396959349#0" to="84734271#0" arrival="3587" />
  <trip id="2021" depart="20" from="-8917852#1" to="-680438018#1" arrival="3575" />
  <trip id="5734" depart="20" from="-419657503" to="-85562546#2" arrival="3590" />
  <trip id="6700" depart="20" from="-437537689" to="143617587" arrival="3577" />
  <trip id="2066" depart="20" from="680783343#0" to="283529405#0" arrival="3581" />
  <trip id="6711" depart="20" from="430754969" to="-E14" arrival="3599" />
  <trip id="6504" depart="20" from="224200968#0" to="930588346#5" arrival="3599" />
  <trip id="8753" depart="20" from="225840346" to="-681758074" arrival="3588" />
  <trip id="5819" depart="20" from="675862895#0" to="254756523" arrival="3593" />
  <trip id="5787" depart="20" from="225516724" to="8917166#14" arrival="3553" />
  <trip id="6634" depart="20" from="364480068#0" to="8918853" arrival="3591" />
  <trip id="8768" depart="21" from="-69598564" to="-1193764509#1" arrival="3577" />
  <trip id="8766" depart="21" from="28572356" to="680402692" arrival="3572" />
  <trip id="8851" depart="21" from="8920632" to="-255178140#0" arrival="3573" />
  <trip id="8831" depart="21" from="619568414" to="689603994" arrival="3587" />
  <trip id="5849" depart="21" from="-262935286" to="44671098#3" arrival="3558" />
  <trip id="8937" depart="22" from="-505761791#1" to="143666212#0" arrival="3559" />
  <trip id="2055" depart="22" from="32007659" to="32007659" arrival="3586" />
  <trip id="8814" depart="22" from="153227162" to="619590730#0" arrival="3596" />
  <trip id="5811" depart="22" from="254466687#1" to="91182060" arrival="3588" />
  <trip id="2024" depart="22" from="27652477#1" to="8920394#0" arrival="3563" />
  <trip id="5853" depart="22" from="254756523" to="-770016877#1" arrival="3559" />
  <trip id="2013" depart="22" from="27652477#1" to="8920394#0" arrival="3563" />
  <trip id="7289" depart="23" from="-88572941#3" to="-514461307" arrival="3598" />
  <trip id="8885" depart="23" from="681660474#0" to="681660474#0" arrival="3565" />
  <trip id="8622" depart="23" from="E39.13" to="-124671897" arrival="3591" />
  <trip id="8726" depart="23" from="464936238" to="120256351#0" arrival="3591" />
  <trip id="8879" depart="23" from="1065793153" to="-427279470#0" arrival="3565" />
  <trip id="8878" depart="23" from="-30642909#4" to="33869215#0" arrival="3576" />
  <trip id="2063" depart="24" from="396957210#0" to="-8917611" arrival="3596" />
  <trip id="5857" depart="24" from="88597563#0" to="619535765" arrival="3566" />
  <trip id="6631" depart="24" from="-255168048#2" to="-37555378#4" arrival="3561" />
  <trip id="6595" depart="24" from="945326760#0" to="397093352#0" arrival="3579" />
  <trip id="8636" depart="24" from="224373744#0" to="27571801#0" arrival="3595" />
  <trip id="6612" depart="24" from="619590730#0" to="430754969" arrival="3562" />
  <trip id="5770" depart="24" from="-737989362" to="133781759" arrival="3596" />
  <trip id="5803" depart="24" from="-286003784" to="99278916" arrival="3561" />
  <trip id="6684" depart="24" from="-155373677#5" to="417087474" arrival="3561" />
  <trip id="2042" depart="24" from="46594527#0" to="255178172#0" arrival="3566" />
  <trip id="6668" depart="24" from="945294690#0" to="1105938795#0" arrival="3563" />
  <trip id="1477" depart="25" from="255351740" to="8915373#0" arrival="3559" />
  <trip id="8661" depart="25" from="619568419" to="389359766" arrival="3578" />
  <trip id="5732" depart="25" from="24547816" to="24547816" arrival="3562" />
  <trip id="7286" depart="25" from="-945294694#1" to="-285975137#1" arrival="3594" />
  <trip id="5785" depart="25" from="364480068#0" to="-254297760" arrival="3566" />
  <trip id="5801" depart="25" from="-133856226#1" to="88572881#0" arrival="3598" />
  <trip id="8515" depart="25" from="8916881" to="-766805263" arrival="3562" />
  <trip id="5859" depart="25" from="133781759" to="-87235204#2" arrival="3576" />
  <trip id="5772" depart="25" from="-27167270#1" to="449197187#0" arrival="3566" />
  <trip id="8630" depart="26" from="286003025#0" to="417235842#0" arrival="3592" />
  <trip id="8947" depart="26" from="-88463831#3" to="89812411#2" arrival="3576" />
  <trip id="8854" depart="26" from="1215827892" to="397148788#2" arrival="3592" />
  <trip id="8800" depart="26" from="-204884121#1" to="397257567" arrival="3590" />
  <trip id="5832" depart="26" from="1053833922" to="-30831508#1" arrival="3520" />
  <trip id="1547" depart="26" from="255351740" to="8915373#0" arrival="3559" />
  <trip id="1483" depart="26" from="-8918614" to="8915373#0" arrival="3582" />
  <trip id="8918" depart="26" from="1138462609" to="-417387767" arrival="3563" />
  <trip id="8657" depart="27" from="397152177#0" to="52432934" arrival="3564" />
  <trip id="5711" depart="27" from="-183198861#0" to="254466689" arrival="3532" />
  <trip id="1475" depart="27" from="-8918614" to="8915373#0" arrival="3582" />
  <trip id="8617" depart="28" from="-8921331#0" to="364480068#0" arrival="3590" />
  <trip id="7215" depart="28" from="24547816" to="254760012#1" arrival="3565" />
  <trip id="8624" depart="28" from="224373761" to="-766805263" arrival="3591" />
  <trip id="6615" depart="28" from="505806740" to="143617587" arrival="3594" />
  <trip id="8778" depart="28" from="28738271#2" to="-8920510#0" arrival="3565" />
  <trip id="6715" depart="29" from="225847529#0" to="-505591745#1" arrival="3566" />
  <trip id="1486" depart="29" from="-680438018#1" to="-680438018#1" arrival="3579" />
  <trip id="8735" depart="30" from="27147680#0" to="414359349#0" arrival="3570" />
  <trip id="8957" depart="30" from="-417979722" to="8922863" arrival="3568" />
  <trip id="2019" depart="30" from="224373744#0" to="88463829#0" arrival="3573" />
  <trip id="6686" depart="30" from="417087474" to="-225516713#0" arrival="3593" />
  <trip id="8901" depart="30" from="-204884397#1" to="1034015969" arrival="3589" />
  <trip id="6603" depart="30" from="E14" to="681971909#0" arrival="3587" />
  <trip id="8706" depart="30" from="417087254" to="403877660#0" arrival="3589" />
  <trip id="5749" depart="30" from="-514580487#1" to="505747573#2" arrival="3596" />
  <trip id="2007" depart="30" from="224373744#0" to="397108536#0" arrival="3574" />
  <trip id="6680" depart="31" from="-254750503#2" to="51392402#0" arrival="3534" />
  <trip id="5736" depart="31" from="-30831609" to="-29482580" arrival="3572" />
  <trip id="5705" depart="31" from="-85562546#0" to="224384044" arrival="3596" />
  <trip id="5753" depart="31" from="8921221#0" to="-27093864" arrival="3595" />
  <trip id="8923" depart="31" from="255351746#1" to="-202317711#2" arrival="3598" />
  <trip id="8817" depart="31" from="514657671" to="403877660#0" arrival="3592" />
  <trip id="5727" depart="31" from="8921221#0" to="-29482580" arrival="3574" />
  <trip id="7252" depart="31" from="680402692" to="-8919408" arrival="3598" />
  <trip id="5750" depart="31" from="-29482580" to="8921221#0" arrival="3572" />
  <trip id="6581" depart="31" from="-8919656#3" to="396945237#0" arrival="3567" />
  <trip id="5746" depart="31" from="254396712#0" to="1124361415#0" arrival="3594" />
  <trip id="7254" depart="31" from="-391862870#2" to="24547816" arrival="2889" />
  <trip id="5725" depart="32" from="1082766087" to="505747779" arrival="3590" />
  <trip id="8938" depart="32" from="680402692" to="28572356" arrival="3598" />
  <trip id="6653" depart="32" from="228196396#0" to="158468954#0" arrival="3585" />
  <trip id="8926" depart="32" from="417087695#0" to="-89812411#5" arrival="3596" />
  <trip id="7262" depart="33" from="-419657507#0" to="-419657503" arrival="3562" />
  <trip id="8770" depart="34" from="-89812411#2" to="224373753#0" arrival="3598" />
  <trip id="7258" depart="34" from="-254760012#1" to="-254760012#1" arrival="3571" />
  <trip id="6657" depart="34" from="1030297702" to="286434721#0" arrival="3595" />
  <trip id="2041" depart="34" from="50690291" to="-224373759#1" arrival="3553" />
  <trip id="6620" depart="34" from="-514452166" to="-705655305#0" arrival="3593" />
  <trip id="8852" depart="34" from="133735884#0" to="133743882" arrival="3592" />
  <trip id="5740" depart="34" from="254760012#1" to="254760012#1" arrival="3571" />
  <trip id="2032" depart="34" from="417400770#0" to="-224373759#1" arrival="3553" />
  <trip id="6579" depart="34" from="8921866" to="-505591745#1" arrival="3571" />
  <trip id="7278" depart="36" from="680402692" to="705655305#0" arrival="3573" />