<?xml version='1.0' encoding='utf-8'?>
<routes>
  <vType id="electric_eco" vClass="taxi" color="0,1,0" emissionClass="Energy">
    <param key="has.taxi.device" value="true" />
    <param key="device.taxi.end" value="7200" />
  </vType>
  <vType id="diesel_normal" vClass="taxi" color="1,0,0" emissionClass="HBEFA3/PC_D_EU4">
    <param key="has.taxi.device" value="true" />
    <param key="device.taxi.end" value="7200" />
  </vType>
  <vType id="gas_modern" vClass="taxi" color="0,0,1" emissionClass="HBEFA3/PC_G_EU6">
    <param key="has.taxi.device" value="true" />
    <param key="device.taxi.end" value="7200" />
  </vType>
  <vType id="zero_emis" vClass="taxi" color="0.5,0.5,0" emissionClass="Zero">
    <param key="has.taxi.device" value="true" />
    <param key="device.taxi.end" value="7200" />
  </vType>
  <trip id="taxi_0" depart="0.00" type="electric_eco" personCapacity="4">
    <stop lane="-573421353#2_0" triggered="person" />
  </trip>
  <trip id="taxi_1" depart="0.00" type="electric_eco" personCapacity="4">
    <stop lane="-8916281#7_0" triggered="person" />
  </trip>
  <trip id="taxi_2" depart="0.00" type="electric_eco" personCapacity="4">
    <stop lane="397152177#0_0" triggered="person" />
  </trip>
  <trip id="taxi_3" depart="0.00" type="electric_eco" personCapacity="4">
    <stop lane="-225518512_0" triggered="person" />
  </trip>
  <trip id="taxi_4" depart="0.00" type="electric_eco" personCapacity="4">
    <stop lane="30030100#2_0" triggered="person" />
  </trip>
  <trip id="taxi_5" depart="0.00" type="electric_eco" personCapacity="4">
    <stop lane="133733593#0_0" triggered="person" />
  </trip>
  <trip id="taxi_6" depart="0.00" type="electric_eco" personCapacity="4">
    <stop lane="8920783#0_0" triggered="person" />
  </trip>
  <trip id="taxi_7" depart="0.00" type="electric_eco" personCapacity="4">
    <stop lane="28596015#0_0" triggered="person" />
  </trip>
  <trip id="taxi_8" depart="0.00" type="electric_eco" personCapacity="4">
    <stop lane="396987786#0_0" triggered="person" />
  </trip>
  <trip id="taxi_9" depart="0.00" type="electric_eco" personCapacity="4">
    <stop lane="-227878389_0" triggered="person" />
  </trip>
  <trip id="taxi_10" depart="0.00" type="electric_eco" personCapacity="4">
    <stop lane="-8914988#0_0" triggered="person" />
  </trip>
  <trip id="taxi_11" depart="0.00" type="electric_eco" personCapacity="4">
    <stop lane="91517995#2_0" triggered="person" />
  </trip>
  <trip id="taxi_12" depart="0.00" type="electric_eco" personCapacity="4">
    <stop lane="-223916565#2_0" triggered="person" />
  </trip>
  <trip id="taxi_13" depart="0.00" type="electric_eco" personCapacity="4">
    <stop lane="8917135#0_0" triggered="person" />
  </trip>
  <trip id="taxi_14" depart="0.00" type="electric_eco" personCapacity="4">
    <stop lane="8920820#1_0" triggered="person" />
  </trip>
  <trip id="taxi_15" depart="0.00" type="electric_eco" personCapacity="4">
    <stop lane="-26929832#2_0" triggered="person" />
  </trip>
  <trip id="taxi_16" depart="0.00" type="electric_eco" personCapacity="4">
    <stop lane="87235213#0_0" triggered="person" />
  </trip>
  <trip id="taxi_17" depart="0.00" type="electric_eco" personCapacity="4">
    <stop lane="736592136_0" triggered="person" />
  </trip>
  <trip id="taxi_18" depart="0.00" type="electric_eco" personCapacity="4">
    <stop lane="8920093#1_0" triggered="person" />
  </trip>
  <trip id="taxi_19" depart="0.00" type="electric_eco" personCapacity="4">
    <stop lane="-1011004734#3_0" triggered="person" />
  </trip>
  <trip id="taxi_20" depart="0.00" type="electric_eco" personCapacity="4">
    <stop lane="1175223867#4_0" triggered="person" />
  </trip>
  <trip id="taxi_21" depart="0.00" type="electric_eco" personCapacity="4">
    <stop lane="-222858919#5_0" triggered="person" />
  </trip>
  <trip id="taxi_22" depart="0.00" type="electric_eco" personCapacity="4">
    <stop lane="-24335480#10_0" triggered="person" />
  </trip>
  <trip id="taxi_23" depart="0.00" type="electric_eco" personCapacity="4">
    <stop lane="8919300_0" triggered="person" />
  </trip>
  <trip id="taxi_24" depart="0.00" type="electric_eco" personCapacity="4">
    <stop lane="143612439#1_0" triggered="person" />
  </trip>
  <trip id="taxi_25" depart="0.00" type="electric_eco" personCapacity="4">
    <stop lane="686246699#0_0" triggered="person" />
  </trip>
  <trip id="taxi_26" depart="0.00" type="electric_eco" personCapacity="4">
    <stop lane="-8917542#0_0" triggered="person" />
  </trip>
  <trip id="taxi_27" depart="0.00" type="electric_eco" personCapacity="4">
    <stop lane="86331269#0_0" triggered="person" />
  </trip>
  <trip id="taxi_28" depart="0.00" type="electric_eco" personCapacity="4">
    <stop lane="-8917345_0" triggered="person" />
  </trip>
  <trip id="taxi_29" depart="0.00" type="electric_eco" personCapacity="4">
    <stop lane="-8920528_0" triggered="person" />
  </trip>
  <trip id="taxi_30" depart="0.00" type="electric_eco" personCapacity="4">
    <stop lane="-82486634#1_0" triggered="person" />
  </trip>
  <trip id="taxi_31" depart="0.00" type="electric_eco" personCapacity="4">
    <stop lane="-505806738#0_0" triggered="person" />
  </trip>
  <trip id="taxi_32" depart="0.00" type="electric_eco" personCapacity="4">
    <stop lane="8917792_0" triggered="person" />
  </trip>
  <trip id="taxi_33" depart="0.00" type="electric_eco" personCapacity="4">
    <stop lane="224316515#0_0" triggered="person" />
  </trip>
  <trip id="taxi_34" depart="0.00" type="electric_eco" personCapacity="4">
    <stop lane="497579295_0" triggered="person" />
  </trip>
  <trip id="taxi_35" depart="0.00" type="electric_eco" personCapacity="4">
    <stop lane="133856237#2_0" triggered="person" />
  </trip>
  <trip id="taxi_36" depart="0.00" type="electric_eco" personCapacity="4">
    <stop lane="133743839#7_0" triggered="person" />
  </trip>
  <trip id="taxi_37" depart="0.00" type="electric_eco" personCapacity="4">
    <stop lane="85562564#0_0" triggered="person" />
  </trip>
  <trip id="taxi_38" depart="0.00" type="electric_eco" personCapacity="4">
    <stop lane="-8919398#5_0" triggered="person" />
  </trip>
  <trip id="taxi_39" depart="0.00" type="electric_eco" personCapacity="4">
    <stop lane="8917280_0" triggered="person" />
  </trip>
  <trip id="taxi_40" depart="0.00" type="electric_eco" personCapacity="4">
    <stop lane="355526648_0" triggered="person" />
  </trip>
  <trip id="taxi_41" depart="0.00" type="electric_eco" personCapacity="4">
    <stop lane="437413082_0" triggered="person" />
  </trip>
  <trip id="taxi_42" depart="0.00" type="electric_eco" personCapacity="4">
    <stop lane="8917183#2_0" triggered="person" />
  </trip>
  <trip id="taxi_43" depart="0.00" type="electric_eco" personCapacity="4">
    <stop lane="69312756#2_0" triggered="person" />
  </trip>
  <trip id="taxi_44" depart="0.00" type="electric_eco" personCapacity="4">
    <stop lane="254466686#2_0" triggered="person" />
  </trip>
  <trip id="taxi_45" depart="0.00" type="electric_eco" personCapacity="4">
    <stop lane="-8918021#0_0" triggered="person" />
  </trip>
  <trip id="taxi_46" depart="0.00" type="electric_eco" personCapacity="4">
    <stop lane="26765619#1_0" triggered="person" />
  </trip>
  <trip id="taxi_47" depart="0.00" type="electric_eco" personCapacity="4">
    <stop lane="233201264#0_0" triggered="person" />
  </trip>
  <trip id="taxi_48" depart="0.00" type="electric_eco" personCapacity="4">
    <stop lane="8920071#3_0" triggered="person" />
  </trip>
  <trip id="taxi_49" depart="0.00" type="electric_eco" personCapacity="4">
    <stop lane="-255178040#4_0" triggered="person" />
  </trip>
  <trip id="taxi_50" depart="0.00" type="electric_eco" personCapacity="4">
    <stop lane="8921709#1_0" triggered="person" />
  </trip>
  <trip id="taxi_51" depart="0.00" type="electric_eco" personCapacity="4">
    <stop lane="437537690#2_0" triggered="person" />
  </trip>
  <trip id="taxi_52" depart="0.00" type="electric_eco" personCapacity="4">
    <stop lane="85562490#0_0" triggered="person" />
  </trip>
  <trip id="taxi_53" depart="0.00" type="electric_eco" personCapacity="4">
    <stop lane="544456548#11_0" triggered="person" />
  </trip>
  <trip id="taxi_54" depart="0.00" type="electric_eco" personCapacity="4">
    <stop lane="8921339#1_0" triggered="person" />
  </trip>
  <trip id="taxi_55" depart="0.00" type="electric_eco" personCapacity="4">
    <stop lane="254299137_0" triggered="person" />
  </trip>
  <trip id="taxi_56" depart="0.00" type="electric_eco" personCapacity="4">
    <stop lane="-162799068_0" triggered="person" />
  </trip>
  <trip id="taxi_57" depart="0.00" type="electric_eco" personCapacity="4">
    <stop lane="-437555702#6_0" triggered="person" />
  </trip>
  <trip id="taxi_58" depart="0.00" type="electric_eco" personCapacity="4">
    <stop lane="-55798327#2_0" triggered="person" />
  </trip>
  <trip id="taxi_59" depart="0.00" type="electric_eco" personCapacity="4">
    <stop lane="-26938702#1_0" triggered="person" />
  </trip>
  <trip id="taxi_60" depart="0.00" type="electric_eco" personCapacity="4">
    <stop lane="400104483#1_0" triggered="person" />
  </trip>
  <trip id="taxi_61" depart="0.00" type="electric_eco" personCapacity="4">
    <stop lane="196950291#2_0" triggered="person" />
  </trip>
  <trip id="taxi_62" depart="0.00" type="electric_eco" personCapacity="4">
    <stop lane="91181759_0" triggered="person" />
  </trip>
  <trip id="taxi_63" depart="0.00" type="electric_eco" personCapacity="4">
    <stop lane="E43_0" triggered="person" />
  </trip>
  <trip id="taxi_64" depart="0.00" type="electric_eco" personCapacity="4">
    <stop lane="-406547245#1_0" triggered="person" />
  </trip>
  <trip id="taxi_65" depart="0.00" type="electric_eco" personCapacity="4">
    <stop lane="254750822#3_0" triggered="person" />
  </trip>
  <trip id="taxi_66" depart="0.00" type="electric_eco" personCapacity="4">
    <stop lane="397269728#0_0" triggered="person" />
  </trip>
  <trip id="taxi_67" depart="0.00" type="electric_eco" personCapacity="4">
    <stop lane="133748349_0" triggered="person" />
  </trip>
  <trip id="taxi_68" depart="0.00" type="electric_eco" personCapacity="4">
    <stop lane="52721870_0" triggered="person" />
  </trip>
  <trip id="taxi_69" depart="0.00" type="electric_eco" personCapacity="4">
    <stop lane="681479565_0" triggered="person" />
  </trip>
  <trip id="taxi_70" depart="0.00" type="electric_eco" personCapacity="4">
    <stop lane="449197187#2_0" triggered="person" />
  </trip>
  <trip id="taxi_71" depart="0.00" type="electric_eco" personCapacity="4">
    <stop lane="-46791690#4_0" triggered="person" />
  </trip>
  <trip id="taxi_72" depart="0.00" type="electric_eco" personCapacity="4">
    <stop lane="8915044_0" triggered="person" />
  </trip>
  <trip id="taxi_73" depart="0.00" type="electric_eco" personCapacity="4">
    <stop lane="223916565#3_0" triggered="person" />
  </trip>
  <trip id="taxi_74" depart="0.00" type="electric_eco" personCapacity="4">
    <stop lane="-680800227_0" triggered="person" />
  </trip>
  <trip id="taxi_75" depart="0.00" type="electric_eco" personCapacity="4">
    <stop lane="8916894_0" triggered="person" />
  </trip>
  <trip id="taxi_76" depart="0.00" type="electric_eco" personCapacity="4">
    <stop lane="-8916689#1_0" triggered="person" />
  </trip>
  <trip id="taxi_77" depart="0.00" type="electric_eco" personCapacity="4">
    <stop lane="397146709_0" triggered="person" />
  </trip>
  <trip id="taxi_78" depart="0.00" type="electric_eco" personCapacity="4">
    <stop lane="-8918255#1_0" triggered="person" />
  </trip>
  <trip id="taxi_79" depart="0.00" type="electric_eco" personCapacity="4">
    <stop lane="769126612#1_0" triggered="person" />
  </trip>
  <trip id="taxi_80" depart="0.00" type="electric_eco" personCapacity="4">
    <stop lane="254971070#4_0" triggered="person" />
  </trip>
  <trip id="taxi_81" depart="0.00" type="electric_eco" personCapacity="4">
    <stop lane="283526875#0_0" triggered="person" />
  </trip>
  <trip id="taxi_82" depart="0.00" type="electric_eco" personCapacity="4">
    <stop lane="738000220#0_0" triggered="person" />
  </trip>
  <trip id="taxi_83" depart="0.00" type="electric_eco" personCapacity="4">
    <stop lane="8917522#0_0" triggered="person" />
  </trip>
  <trip id="taxi_84" depart="0.00" type="electric_eco" personCapacity="4">
    <stop lane="1092444832#0_0" triggered="person" />
  </trip>
  <trip id="taxi_85" depart="0.00" type="electric_eco" personCapacity="4">
    <stop lane="549859218#0_0" triggered="person" />
  </trip>
  <trip id="taxi_86" depart="0.00" type="electric_eco" personCapacity="4">
    <stop lane="26937974#9_0" triggered="person" />
  </trip>
  <trip id="taxi_87" depart="0.00" type="electric_eco" personCapacity="4">
    <stop lane="88597553#0_0" triggered="person" />
  </trip>
  <trip id="taxi_88" depart="0.00" type="electric_eco" personCapacity="4">
    <stop lane="-145486758#0_0" triggered="person" />
  </trip>
  <trip id="taxi_89" depart="0.00" type="electric_eco" personCapacity="4">
    <stop lane="-8922388#1_0" triggered="person" />
  </trip>
  <trip id="taxi_90" depart="0.00" type="electric_eco" personCapacity="4">
    <stop lane="-48211062#4_0" triggered="person" />
  </trip>
  <trip id="taxi_91" depart="0.00" type="electric_eco" personCapacity="4">
    <stop lane="465227211#1_0" triggered="person" />
  </trip>
  <trip id="taxi_92" depart="0.00" type="electric_eco" personCapacity="4">
    <stop lane="8917535#0_0" triggered="person" />
  </trip>
  <trip id="taxi_93" depart="0.00" type="electric_eco" personCapacity="4">
    <stop lane="397135724_0" triggered="person" />
  </trip>
  <trip id="taxi_94" depart="0.00" type="electric_eco" personCapacity="4">
    <stop lane="682762590_0" triggered="person" />
  </trip>
  <trip id="taxi_95" depart="0.00" type="electric_eco" personCapacity="4">
    <stop lane="416878321#3_0" triggered="person" />
  </trip>
  <trip id="taxi_96" depart="0.00" type="electric_eco" personCapacity="4">
    <stop lane="-8919946_0" triggered="person" />
  </trip>
  <trip id="taxi_97" depart="0.00" type="electric_eco" personCapacity="4">
    <stop lane="-155373675#1_0" triggered="person" />
  </trip>
  <trip id="taxi_98" depart="0.00" type="electric_eco" personCapacity="4">
    <stop lane="8917801#0_0" triggered="person" />
  </trip>
  <trip id="taxi_99" depart="0.00" type="electric_eco" personCapacity="4">
    <stop lane="-8916351_0" triggered="person" />
  </trip>
  <trip id="taxi_100" depart="0.00" type="electric_eco" personCapacity="4">
    <stop lane="8917443_0" triggered="person" />
  </trip>
  <trip id="taxi_101" depart="0.00" type="electric_eco" personCapacity="4">
    <stop lane="37177789#0_0" triggered="person" />
  </trip>
  <trip id="taxi_102" depart="0.00" type="electric_eco" personCapacity="4">
    <stop lane="255178171#0_0" triggered="person" />
  </trip>
  <trip id="taxi_103" depart="0.00" type="electric_eco" personCapacity="4">
    <stop lane="27054209_0" triggered="person" />
  </trip>
  <trip id="taxi_104" depart="0.00" type="electric_eco" personCapacity="4">
    <stop lane="225806050#5_0" triggered="person" />
  </trip>
  <trip id="taxi_105" depart="0.00" type="electric_eco" personCapacity="4">
    <stop lane="417235842#0_0" triggered="person" />
  </trip>
  <trip id="taxi_106" depart="0.00" type="electric_eco" personCapacity="4">
    <stop lane="742976231_0" triggered="person" />
  </trip>
  <trip id="taxi_107" depart="0.00" type="electric_eco" personCapacity="4">
    <stop lane="-771409386#4_0" triggered="person" />
  </trip>
  <trip id="taxi_108" depart="0.00" type="electric_eco" personCapacity="4">
    <stop lane="-8921182_0" triggered="person" />
  </trip>
  <trip id="taxi_109" depart="0.00" type="electric_eco" personCapacity="4">
    <stop lane="8922303_0" triggered="person" />
  </trip>
  <trip id="taxi_110" depart="0.00" type="electric_eco" personCapacity="4">
    <stop lane="566870076#2_0" triggered="person" />
  </trip>
  <trip id="taxi_111" depart="0.00" type="electric_eco" personCapacity="4">
    <stop lane="1158606266#1_0" triggered="person" />
  </trip>
  <trip id="taxi_112" depart="0.00" type="electric_eco" personCapacity="4">
    <stop lane="255178083#3_0" triggered="person" />
  </trip>
  <trip id="taxi_113" depart="0.00" type="electric_eco" personCapacity="4">
    <stop lane="111552058#0_0" triggered="person" />
  </trip>
  <trip id="taxi_114" depart="0.00" type="electric_eco" personCapacity="4">
    <stop lane="186400365#0_0" triggered="person" />
  </trip>
  <trip id="taxi_115" depart="0.00" type="electric_eco" personCapacity="4">
    <stop lane="32929982#11_0" triggered="person" />
  </trip>
  <trip id="taxi_116" depart="0.00" type="electric_eco" personCapacity="4">
    <stop lane="-8920301_0" triggered="person" />
  </trip>
  <trip id="taxi_117" depart="0.00" type="electric_eco" personCapacity="4">
    <stop lane="8917779#0_0" triggered="person" />
  </trip>
  <trip id="taxi_118" depart="0.00" type="electric_eco" personCapacity="4">
    <stop lane="154648143#0_0" triggered="person" />
  </trip>
  <trip id="taxi_119" depart="0.00" type="electric_eco" personCapacity="4">
    <stop lane="8915078_0" triggered="person" />
  </trip>
  <trip id="taxi_120" depart="0.00" type="electric_eco" personCapacity="4">
    <stop lane="48959758#1_0" triggered="person" />
  </trip>
  <trip id="taxi_121" depart="0.00" type="electric_eco" personCapacity="4">
    <stop lane="437413082_0" triggered="person" />
  </trip>
  <trip id="taxi_122" depart="0.00" type="electric_eco" personCapacity="4">
    <stop lane="254968942_0" triggered="person" />
  </trip>
  <trip id="taxi_123" depart="0.00" type="electric_eco" personCapacity="4">
    <stop lane="-8920021#5_0" triggered="person" />
  </trip>
  <trip id="taxi_124" depart="0.00" type="electric_eco" personCapacity="4">
    <stop lane="-1168069941#9_0" triggered="person" />
  </trip>
  <trip id="taxi_125" depart="0.00" type="electric_eco" personCapacity="4">
    <stop lane="123741422_0" triggered="person" />
  </trip>
  <trip id="taxi_126" depart="0.00" type="electric_eco" personCapacity="4">
    <stop lane="-158468964#2_0" triggered="person" />
  </trip>
  <trip id="taxi_127" depart="0.00" type="electric_eco" personCapacity="4">
    <stop lane="225516727#1_0" triggered="person" />
  </trip>
  <trip id="taxi_128" depart="0.00" type="electric_eco" personCapacity="4">
    <stop lane="157018878#0_0" triggered="person" />
  </trip>
  <trip id="taxi_129" depart="0.00" type="electric_eco" personCapacity="4">
    <stop lane="8919608#0_0" triggered="person" />
  </trip>
  <trip id="taxi_130" depart="0.00" type="electric_eco" personCapacity="4">
    <stop lane="28808425_0" triggered="person" />
  </trip>
  <trip id="taxi_131" depart="0.00" type="electric_eco" personCapacity="4">
    <stop lane="E60_0" triggered="person" />
  </trip>
  <trip id="taxi_132" depart="0.00" type="electric_eco" personCapacity="4">
    <stop lane="-1029399048_0" triggered="person" />
  </trip>
  <trip id="taxi_133" depart="0.00" type="electric_eco" personCapacity="4">
    <stop lane="755816408#0_0" triggered="person" />
  </trip>
  <trip id="taxi_134" depart="0.00" type="electric_eco" personCapacity="4">
    <stop lane="256803973#2_0" triggered="person" />
  </trip>
  <trip id="taxi_135" depart="0.00" type="electric_eco" personCapacity="4">
    <stop lane="425516651_0" triggered="person" />
  </trip>
  <trip id="taxi_136" depart="0.00" type="electric_eco" personCapacity="4">
    <stop lane="-475253855_0" triggered="person" />
  </trip>
  <trip id="taxi_137" depart="0.00" type="electric_eco" personCapacity="4">
    <stop lane="-225806052#0_0" triggered="person" />
  </trip>
  <trip id="taxi_138" depart="0.00" type="electric_eco" personCapacity="4">
    <stop lane="-437533751#2_0" triggered="person" />
  </trip>
  <trip id="taxi_139" depart="0.00" type="electric_eco" personCapacity="4">
    <stop lane="-437555702#11_0" triggered="person" />
  </trip>
  <trip id="taxi_140" depart="0.00" type="electric_eco" personCapacity="4">
    <stop lane="-777160086_0" triggered="person" />
  </trip>
  <trip id="taxi_141" depart="0.00" type="electric_eco" personCapacity="4">
    <stop lane="8919450#3_0" triggered="person" />
  </trip>
  <trip id="taxi_142" depart="0.00" type="electric_eco" personCapacity="4">
    <stop lane="8920559#0_0" triggered="person" />
  </trip>
  <trip id="taxi_143" depart="0.00" type="electric_eco" personCapacity="4">
    <stop lane="468000212_0" triggered="person" />
  </trip>
  <trip id="taxi_144" depart="0.00" type="electric_eco" personCapacity="4">
    <stop lane="8919695#2_0" triggered="person" />
  </trip>
  <trip id="taxi_145" depart="0.00" type="electric_eco" personCapacity="4">
    <stop lane="26937974#2_0" triggered="person" />
  </trip>
  <trip id="taxi_146" depart="0.00" type="electric_eco" personCapacity="4">
    <stop lane="-427283771_0" triggered="person" />
  </trip>
  <trip id="taxi_147" depart="0.00" type="electric_eco" personCapacity="4">
    <stop lane="417099354_0" triggered="person" />
  </trip>
  <trip id="taxi_148" depart="0.00" type="electric_eco" personCapacity="4">
    <stop lane="514650997#0_0" triggered="person" />
  </trip>
  <trip id="taxi_149" depart="0.00" type="electric_eco" personCapacity="4">
    <stop lane="437558241#1_0" triggered="person" />
  </trip>
  <trip id="taxi_150" depart="0.00" type="electric_eco" personCapacity="4">
    <stop lane="772972818_0" triggered="person" />
  </trip>
  <trip id="taxi_151" depart="0.00" type="electric_eco" personCapacity="4">
    <stop lane="-437559564#0_0" triggered="person" />
  </trip>
  <trip id="taxi_152" depart="0.00" type="electric_eco" personCapacity="4">
    <stop lane="8917026#0_0" triggered="person" />
  </trip>
  <trip id="taxi_153" depart="0.00" type="electric_eco" personCapacity="4">
    <stop lane="397250670#0_0" triggered="person" />
  </trip>
  <trip id="taxi_154" depart="0.00" type="electric_eco" personCapacity="4">
    <stop lane="399138121#2_0" triggered="person" />
  </trip>
  <trip id="taxi_155" depart="0.00" type="electric_eco" personCapacity="4">
    <stop lane="258144381#1_0" triggered="person" />
  </trip>
  <trip id="taxi_156" depart="0.00" type="electric_eco" personCapacity="4">
    <stop lane="25657576#0_0" triggered="person" />
  </trip>
  <trip id="taxi_157" depart="0.00" type="electric_eco" personCapacity="4">
    <stop lane="107288559_0" triggered="person" />
  </trip>
  <trip id="taxi_158" depart="0.00" type="electric_eco" personCapacity="4">
    <stop lane="31779976_0" triggered="person" />
  </trip>
  <trip id="taxi_159" depart="0.00" type="electric_eco" personCapacity="4">
    <stop lane="-8918515#5_0" triggered="person" />
  </trip>
  <trip id="taxi_160" depart="0.00" type="electric_eco" personCapacity="4">
    <stop lane="27092233#12_0" triggered="person" />
  </trip>
  <trip id="taxi_161" depart="0.00" type="electric_eco" personCapacity="4">
    <stop lane="224384035#0_0" triggered="person" />
  </trip>
  <trip id="taxi_162" depart="0.00" type="electric_eco" personCapacity="4">
    <stop lane="-84733302#22_0" triggered="person" />
  </trip>
  <trip id="taxi_163" depart="0.00" type="electric_eco" personCapacity="4">
    <stop lane="88396406#2_0" triggered="person" />
  </trip>
  <trip id="taxi_164" depart="0.00" type="electric_eco" personCapacity="4">
    <stop lane="8919932#0_0" triggered="person" />
  </trip>
  <trip id="taxi_165" depart="0.00" type="electric_eco" personCapacity="4">
    <stop lane="-8922155#2_0" triggered="person" />
  </trip>
  <trip id="taxi_166" depart="0.00" type="electric_eco" personCapacity="4">
    <stop lane="8919605_0" triggered="person" />
  </trip>
  <trip id="taxi_167" depart="0.00" type="electric_eco" personCapacity="4">
    <stop lane="-437558265#0_0" triggered="person" />
  </trip>
  <trip id="taxi_168" depart="0.00" type="electric_eco" personCapacity="4">
    <stop lane="8920701#4_0" triggered="person" />
  </trip>
  <trip id="taxi_169" depart="0.00" type="electric_eco" personCapacity="4">
    <stop lane="677165867_0" triggered="person" />
  </trip>
  <trip id="taxi_170" depart="0.00" type="electric_eco" personCapacity="4">
    <stop lane="133743904_0" triggered="person" />
  </trip>
  <trip id="taxi_171" depart="0.00" type="electric_eco" personCapacity="4">
    <stop lane="-414979751#8_0" triggered="person" />
  </trip>
  <trip id="taxi_172" depart="0.00" type="electric_eco" personCapacity="4">
    <stop lane="8916433#2_0" triggered="person" />
  </trip>
  <trip id="taxi_173" depart="0.00" type="electric_eco" personCapacity="4">
    <stop lane="406581245_0" triggered="person" />
  </trip>
  <trip id="taxi_174" depart="0.00" type="electric_eco" personCapacity="4">
    <stop lane="286265327#17_0" triggered="person" />
  </trip>
  <trip id="taxi_175" depart="0.00" type="electric_eco" personCapacity="4">
    <stop lane="-425516655#0_0" triggered="person" />
  </trip>
  <trip id="taxi_176" depart="0.00" type="electric_eco" personCapacity="4">
    <stop lane="680402692_0" triggered="person" />
  </trip>
  <trip id="taxi_177" depart="0.00" type="electric_eco" personCapacity="4">
    <stop lane="-26965858_0" triggered="person" />
  </trip>
  <trip id="taxi_178" depart="0.00" type="electric_eco" personCapacity="4">
    <stop lane="397146706#3_0" triggered="person" />
  </trip>
  <trip id="taxi_179" depart="0.00" type="electric_eco" personCapacity="4">
    <stop lane="399144608#0_0" triggered="person" />
  </trip>
  <trip id="taxi_180" depart="0.00" type="electric_eco" personCapacity="4">
    <stop lane="-368030549#1_0" triggered="person" />
  </trip>
  <trip id="taxi_181" depart="0.00" type="electric_eco" personCapacity="4">
    <stop lane="-254759958#1_0" triggered="person" />
  </trip>
  <trip id="taxi_182" depart="0.00" type="electric_eco" personCapacity="4">
    <stop lane="162931810#0_0" triggered="person" />
  </trip>
  <trip id="taxi_183" depart="0.00" type="electric_eco" personCapacity="4">
    <stop lane="396979377#0_0" triggered="person" />
  </trip>
  <trip id="taxi_184" depart="0.00" type="electric_eco" personCapacity="4">
    <stop lane="8916078_0" triggered="person" />
  </trip>
  <trip id="taxi_185" depart="0.00" type="electric_eco" personCapacity="4">
    <stop lane="8919163#15_0" triggered="person" />
  </trip>
  <trip id="taxi_186" depart="0.00" type="electric_eco" personCapacity="4">
    <stop lane="8916452#1_0" triggered="person" />
  </trip>
  <trip id="taxi_187" depart="0.00" type="electric_eco" personCapacity="4">
    <stop lane="-255178148#2_0" triggered="person" />
  </trip>
  <trip id="taxi_188" depart="0.00" type="electric_eco" personCapacity="4">
    <stop lane="-406548396#0_0" triggered="person" />
  </trip>
  <trip id="taxi_189" depart="0.00" type="electric_eco" personCapacity="4">
    <stop lane="468204139#0_0" triggered="person" />
  </trip>
  <trip id="taxi_190" depart="0.00" type="electric_eco" personCapacity="4">
    <stop lane="706531344#0_0" triggered="person" />
  </trip>
  <trip id="taxi_191" depart="0.00" type="electric_eco" personCapacity="4">
    <stop lane="-437533751#0_0" triggered="person" />
  </trip>
  <trip id="taxi_192" depart="0.00" type="electric_eco" personCapacity="4">
    <stop lane="-8916216#5_0" triggered="person" />
  </trip>
  <trip id="taxi_193" depart="0.00" type="electric_eco" personCapacity="4">
    <stop lane="-425516688_0" triggered="person" />
  </trip>
  <trip id="taxi_194" depart="0.00" type="electric_eco" personCapacity="4">
    <stop lane="7373736#1_0" triggered="person" />
  </trip>
  <trip id="taxi_195" depart="0.00" type="electric_eco" personCapacity="4">
    <stop lane="-677106298#0_0" triggered="person" />
  </trip>
  <trip id="taxi_196" depart="0.00" type="electric_eco" personCapacity="4">
    <stop lane="-297237980_0" triggered="person" />
  </trip>
  <trip id="taxi_197" depart="0.00" type="electric_eco" personCapacity="4">
    <stop lane="8918515#1_0" triggered="person" />
  </trip>
  <trip id="taxi_198" depart="0.00" type="electric_eco" personCapacity="4">
    <stop lane="1064042429#9_0" triggered="person" />
  </trip>
  <trip id="taxi_199" depart="0.00" type="electric_eco" personCapacity="4">
    <stop lane="-399883466_0" triggered="person" />
  </trip>
  <trip id="taxi_200" depart="0.00" type="electric_eco" personCapacity="4">
    <stop lane="-513933050_0" triggered="person" />
  </trip>
  <trip id="taxi_201" depart="0.00" type="electric_eco" personCapacity="4">
    <stop lane="-225847504_0" triggered="person" />
  </trip>
  <trip id="taxi_202" depart="0.00" type="electric_eco" personCapacity="4">
    <stop lane="8917256_0" triggered="person" />
  </trip>
  <trip id="taxi_203" depart="0.00" type="electric_eco" personCapacity="4">
    <stop lane="148310037_0" triggered="person" />
  </trip>
  <trip id="taxi_204" depart="0.00" type="electric_eco" personCapacity="4">
    <stop lane="-8916491#1_0" triggered="person" />
  </trip>
  <trip id="taxi_205" depart="0.00" type="electric_eco" personCapacity="4">
    <stop lane="8920746#3_0" triggered="person" />
  </trip>
  <trip id="taxi_206" depart="0.00" type="electric_eco" personCapacity="4">
    <stop lane="-8916275#1_0" triggered="person" />
  </trip>
  <trip id="taxi_207" depart="0.00" type="electric_eco" personCapacity="4">
    <stop lane="-8920758_0" triggered="person" />
  </trip>
  <trip id="taxi_208" depart="0.00" type="electric_eco" personCapacity="4">
    <stop lane="-1212173448_0" triggered="person" />
  </trip>
  <trip id="taxi_209" depart="0.00" type="electric_eco" personCapacity="4">
    <stop lane="1122268857#0_0" triggered="person" />
  </trip>
  <trip id="taxi_210" depart="0.00" type="electric_eco" personCapacity="4">
    <stop lane="619027325_0" triggered="person" />
  </trip>
  <trip id="taxi_211" depart="0.00" type="electric_eco" personCapacity="4">
    <stop lane="8921876#1_0" triggered="person" />
  </trip>